gem5 Simulator System.  http://gem5.org
gem5 is copyrighted software; use the --copyright option for details.

gem5 compiled Apr 11 2017 09:14:21
gem5 started Apr 11 2017 09:59:26
gem5 executing on shai.cse.psu.edu, pid 17003
command line: /home/mdl/mjl5868/GEM5/Mem2D/New_Version/2dmem_v0_1_addaddrbit/V0_1_AddAddrBit/gem5/build/X86/gem5.fast --redirect-stdout --stdout-file=align_test_Apr11_2017.gemout --redirect-stderr --stderr-file=align_test_Apr11_2017.gemerr --stats-file=align_test_Apr11_2017.stats /home/mdl/mjl5868/GEM5/Mem2D/New_Version/2dmem_v0_1_addaddrbit/V0_1_AddAddrBit/gem5/configs/example/se.py --output=align_test_Apr11_2017.appout --errout=align_test_Apr11_2017.apperr -c /home/mdl/mjl5868/GEM5/Mem2D/New_Version/2dmem_v0_1_addaddrbit/V0_1_AddAddrBit/Run_test_pbs/Vector_test/aligntest_sgemm-bin --caches --l2cache --cpu-type=detailed

Global frequency set at 1000000000000 ticks per second
**** REAL SIMULATION ****
info: Entering event queue @ 0.  Starting simulation...
system.cpu.icache.cpu_side::recvTimingReq: hasPC? 1, PC = 4194752, hasContextId? 1, contextID = 0, Vaddr: 4194752, Paddr: 448
system.cpu.icache.cpu_side::recvTimingReq: hasPC? 1, PC = 4194752, hasContextId? 1, contextID = 0, Vaddr: 4194752, Paddr: 448
system.cpu.dcache.cpu_side::recvTimingReq: hasPC? 1, PC = 4194757, hasContextId? 1, contextID = 0, MemCmd: ReadReq, Size: 8, CmdDir: 1
system.cpu.icache.cpu_side::recvTimingReq: hasPC? 1, PC = 4803104, hasContextId? 1, contextID = 0, Vaddr: 4803072, Paddr: 608768
system.cpu.dcache.cpu_side::recvTimingReq: hasPC? 1, PC = 4194765, hasContextId? 1, contextID = 0, MemCmd: WriteReq, Size: 8, CmdDir: 1
system.cpu.dcache.cpu_side::recvTimingReq: hasPC? 1, PC = 4194766, hasContextId? 1, contextID = 0, MemCmd: WriteReq, Size: 8, CmdDir: 1
system.cpu.dcache.cpu_side::recvTimingReq: hasPC? 1, PC = 4194788, hasContextId? 1, contextID = 0, MemCmd: WriteReq, Size: 8, CmdDir: 1
system.cpu.icache.cpu_side::recvTimingReq: hasPC? 1, PC = 4803135, hasContextId? 1, contextID = 0, Vaddr: 4803136, Paddr: 608832
system.cpu.dcache.cpu_side::recvTimingReq: hasPC? 1, PC = 4803104, hasContextId? 1, contextID = 0, MemCmd: WriteReq, Size: 8, CmdDir: 1
system.cpu.dcache.cpu_side::recvTimingReq: hasPC? 1, PC = 4803111, hasContextId? 1, contextID = 0, MemCmd: WriteReq, Size: 8, CmdDir: 1
system.cpu.dcache.cpu_side::recvTimingReq: hasPC? 1, PC = 4803113, hasContextId? 1, contextID = 0, MemCmd: WriteReq, Size: 8, CmdDir: 1
system.cpu.dcache.cpu_side::recvTimingReq: hasPC? 1, PC = 4803115, hasContextId? 1, contextID = 0, MemCmd: WriteReq, Size: 8, CmdDir: 1
system.cpu.dcache.cpu_side::recvTimingReq: hasPC? 1, PC = 4803120, hasContextId? 1, contextID = 0, MemCmd: WriteReq, Size: 8, CmdDir: 1
system.cpu.dcache.cpu_side::recvTimingReq: hasPC? 1, PC = 4803124, hasContextId? 1, contextID = 0, MemCmd: WriteReq, Size: 8, CmdDir: 1
system.cpu.icache.cpu_side::recvTimingReq: hasPC? 1, PC = 4803195, hasContextId? 1, contextID = 0, Vaddr: 4803200, Paddr: 608896
system.cpu.dcache.cpu_side::recvTimingReq: hasPC? 1, PC = 4803187, hasContextId? 1, contextID = 0, MemCmd: ReadReq, Size: 8, CmdDir: 1
system.cpu.icache.cpu_side::recvTimingReq: hasPC? 1, PC = 4803166, hasContextId? 1, contextID = 0, Vaddr: 4803136, Paddr: 608832
system.cpu.icache.cpu_side::recvTimingReq: hasPC? 1, PC = 4803195, hasContextId? 1, contextID = 0, Vaddr: 4803200, Paddr: 608896
system.cpu.dcache.cpu_side::recvTimingReq: hasPC? 1, PC = 4803138, hasContextId? 1, contextID = 0, MemCmd: WriteReq, Size: 8, CmdDir: 1
system.cpu.dcache.cpu_side::recvTimingReq: hasPC? 1, PC = 4803187, hasContextId? 1, contextID = 0, MemCmd: ReadReq, Size: 8, CmdDir: 1
system.cpu.icache.cpu_side::recvTimingReq: hasPC? 1, PC = 4803262, hasContextId? 1, contextID = 0, Vaddr: 4803264, Paddr: 608960
system.cpu.dcache.cpu_side::recvTimingReq: hasPC? 1, PC = 4803216, hasContextId? 1, contextID = 0, MemCmd: ReadReq, Size: 8, CmdDir: 1
system.cpu.icache.cpu_side::recvTimingReq: hasPC? 1, PC = 4928208, hasContextId? 1, contextID = 0, Vaddr: 4928192, Paddr: 733888
system.cpu.dcache.cpu_side::recvTimingReq: hasPC? 1, PC = 4803143, hasContextId? 1, contextID = 0, MemCmd: WriteReq, Size: 4, CmdDir: 1
system.cpu.dcache.cpu_side::recvTimingReq: hasPC? 1, PC = 4803147, hasContextId? 1, contextID = 0, MemCmd: WriteReq, Size: 8, CmdDir: 1
system.cpu.dcache.cpu_side::recvTimingReq: hasPC? 1, PC = 4803166, hasContextId? 1, contextID = 0, MemCmd: WriteReq, Size: 4, CmdDir: 1
system.cpu.icache.cpu_side::recvTimingReq: hasPC? 1, PC = 4928256, hasContextId? 1, contextID = 0, Vaddr: 4928256, Paddr: 733952
system.cpu.dcache.cpu_side::recvTimingReq: hasPC? 1, PC = 4928210, hasContextId? 1, contextID = 0, MemCmd: ReadReq, Size: 8, CmdDir: 1
system.cpu.dcache.cpu_side::recvTimingReq: hasPC? 1, PC = 4928226, hasContextId? 1, contextID = 0, MemCmd: ReadReq, Size: 8, CmdDir: 1
system.cpu.dcache.cpu_side::recvTimingReq: hasPC? 1, PC = 4928233, hasContextId? 1, contextID = 0, MemCmd: ReadReq, Size: 4, CmdDir: 1
system.cpu.dcache.cpu_side::recvTimingReq: hasPC? 1, PC = 4928242, hasContextId? 1, contextID = 0, MemCmd: ReadReq, Size: 8, CmdDir: 1
system.cpu.dcache.cpu_side::recvTimingReq: hasPC? 1, PC = 4928249, hasContextId? 1, contextID = 0, MemCmd: ReadReq, Size: 8, CmdDir: 1
system.cpu.dcache.cpu_side::recvTimingReq: hasPC? 1, PC = 4928249, hasContextId? 1, contextID = 0, MemCmd: ReadReq, Size: 8, CmdDir: 1
system.cpu.dcache.cpu_side::recvTimingReq: hasPC? 1, PC = 4803195, hasContextId? 1, contextID = 0, MemCmd: WriteReq, Size: 8, CmdDir: 1
system.cpu.icache.cpu_side::recvTimingReq: hasPC? 1, PC = 4928320, hasContextId? 1, contextID = 0, Vaddr: 4928320, Paddr: 734016
system.cpu.dcache.cpu_side::recvTimingReq: hasPC? 1, PC = 4928258, hasContextId? 1, contextID = 0, MemCmd: ReadReq, Size: 8, CmdDir: 1
system.cpu.dcache.cpu_side::recvTimingReq: hasPC? 1, PC = 4928265, hasContextId? 1, contextID = 0, MemCmd: ReadReq, Size: 8, CmdDir: 1
system.cpu.dcache.cpu_side::recvTimingReq: hasPC? 1, PC = 4928274, hasContextId? 1, contextID = 0, MemCmd: ReadReq, Size: 4, CmdDir: 1
system.cpu.dcache.cpu_side::recvTimingReq: hasPC? 1, PC = 4928281, hasContextId? 1, contextID = 0, MemCmd: ReadReq, Size: 4, CmdDir: 1
system.cpu.dcache.cpu_side::recvTimingReq: hasPC? 1, PC = 4928312, hasContextId? 1, contextID = 0, MemCmd: ReadReq, Size: 8, CmdDir: 1
system.cpu.dcache.cpu_side::recvTimingReq: hasPC? 1, PC = 4928298, hasContextId? 1, contextID = 0, MemCmd: ReadReq, Size: 8, CmdDir: 1
system.cpu.dcache.cpu_side::recvTimingReq: hasPC? 1, PC = 4928258, hasContextId? 1, contextID = 0, MemCmd: ReadReq, Size: 8, CmdDir: 1
system.cpu.dcache.cpu_side::recvTimingReq: hasPC? 1, PC = 4928265, hasContextId? 1, contextID = 0, MemCmd: ReadReq, Size: 8, CmdDir: 1
system.cpu.dcache.cpu_side::recvTimingReq: hasPC? 1, PC = 4928274, hasContextId? 1, contextID = 0, MemCmd: ReadReq, Size: 4, CmdDir: 1
system.cpu.dcache.cpu_side::recvTimingReq: hasPC? 1, PC = 4928281, hasContextId? 1, contextID = 0, MemCmd: ReadReq, Size: 4, CmdDir: 1
system.cpu.dcache.cpu_side::recvTimingReq: hasPC? 1, PC = 4928298, hasContextId? 1, contextID = 0, MemCmd: ReadReq, Size: 8, CmdDir: 1
system.cpu.dcache.cpu_side::recvTimingReq: hasPC? 1, PC = 4928312, hasContextId? 1, contextID = 0, MemCmd: ReadReq, Size: 8, CmdDir: 1
system.cpu.dcache.cpu_side::recvTimingReq: hasPC? 1, PC = 4928265, hasContextId? 1, contextID = 0, MemCmd: ReadReq, Size: 8, CmdDir: 1
system.cpu.dcache.cpu_side::recvTimingReq: hasPC? 1, PC = 4928274, hasContextId? 1, contextID = 0, MemCmd: ReadReq, Size: 4, CmdDir: 1
system.cpu.dcache.cpu_side::recvTimingReq: hasPC? 1, PC = 4928281, hasContextId? 1, contextID = 0, MemCmd: ReadReq, Size: 4, CmdDir: 1
system.cpu.dcache.cpu_side::recvTimingReq: hasPC? 1, PC = 4928298, hasContextId? 1, contextID = 0, MemCmd: ReadReq, Size: 8, CmdDir: 1
system.cpu.dcache.cpu_side::recvTimingReq: hasPC? 1, PC = 4928312, hasContextId? 1, contextID = 0, MemCmd: ReadReq, Size: 8, CmdDir: 1
system.cpu.dcache.cpu_side::recvTimingReq: hasPC? 1, PC = 4928281, hasContextId? 1, contextID = 0, MemCmd: ReadReq, Size: 4, CmdDir: 1
system.cpu.dcache.cpu_side::recvTimingReq: hasPC? 1, PC = 4928298, hasContextId? 1, contextID = 0, MemCmd: ReadReq, Size: 8, CmdDir: 1
system.cpu.dcache.cpu_side::recvTimingReq: hasPC? 1, PC = 4928312, hasContextId? 1, contextID = 0, MemCmd: ReadReq, Size: 8, CmdDir: 1
system.cpu.dcache.cpu_side::recvTimingReq: hasPC? 1, PC = 4928298, hasContextId? 1, contextID = 0, MemCmd: ReadReq, Size: 8, CmdDir: 1
system.cpu.dcache.cpu_side::recvTimingReq: hasPC? 1, PC = 4928312, hasContextId? 1, contextID = 0, MemCmd: ReadReq, Size: 8, CmdDir: 1
system.cpu.dcache.cpu_side::recvTimingReq: hasPC? 1, PC = 4803202, hasContextId? 1, contextID = 0, MemCmd: WriteReq, Size: 8, CmdDir: 1
system.cpu.icache.cpu_side::recvTimingReq: hasPC? 1, PC = 4928381, hasContextId? 1, contextID = 0, Vaddr: 4928384, Paddr: 734080
system.cpu.dcache.cpu_side::recvTimingReq: hasPC? 1, PC = 4928324, hasContextId? 1, contextID = 0, MemCmd: ReadReq, Size: 8, CmdDir: 1
system.cpu.dcache.cpu_side::recvTimingReq: hasPC? 1, PC = 4803202, hasContextId? 1, contextID = 0, MemCmd: WriteReq, Size: 8, CmdDir: 1
system.cpu.dcache.cpu_side::recvTimingReq: hasPC? 1, PC = 4928312, hasContextId? 1, contextID = 0, MemCmd: ReadReq, Size: 8, CmdDir: 1
system.cpu.dcache.cpu_side::recvTimingReq: hasPC? 1, PC = 4928324, hasContextId? 1, contextID = 0, MemCmd: ReadReq, Size: 8, CmdDir: 1
system.cpu.dcache.cpu_side::recvTimingReq: hasPC? 1, PC = 4803228, hasContextId? 1, contextID = 0, MemCmd: WriteReq, Size: 8, CmdDir: 1
system.cpu.dcache.cpu_side::recvTimingReq: hasPC? 1, PC = 4928208, hasContextId? 1, contextID = 0, MemCmd: WriteReq, Size: 8, CmdDir: 1
system.cpu.dcache.cpu_side::recvTimingReq: hasPC? 1, PC = 4928213, hasContextId? 1, contextID = 0, MemCmd: WriteReq, Size: 8, CmdDir: 1
system.cpu.icache.cpu_side::recvTimingReq: hasPC? 1, PC = 4928440, hasContextId? 1, contextID = 0, Vaddr: 4928384, Paddr: 734080
system.cpu.icache.cpu_side::recvTimingReq: hasPC? 1, PC = 4928448, hasContextId? 1, contextID = 0, Vaddr: 4928448, Paddr: 734144
system.cpu.dcache.cpu_side::recvTimingReq: hasPC? 1, PC = 4928440, hasContextId? 1, contextID = 0, MemCmd: ReadReq, Size: 8, CmdDir: 1
system.cpu.dcache.cpu_side::recvTimingReq: hasPC? 1, PC = 4928218, hasContextId? 1, contextID = 0, MemCmd: WriteReq, Size: 8, CmdDir: 1
system.cpu.dcache.cpu_side::recvTimingReq: hasPC? 1, PC = 4928219, hasContextId? 1, contextID = 0, MemCmd: WriteReq, Size: 8, CmdDir: 1
system.cpu.icache.cpu_side::recvTimingReq: hasPC? 1, PC = 4928512, hasContextId? 1, contextID = 0, Vaddr: 4928512, Paddr: 734208
system.cpu.dcache.cpu_side::recvTimingReq: hasPC? 1, PC = 4928448, hasContextId? 1, contextID = 0, MemCmd: ReadReq, Size: 8, CmdDir: 1
system.cpu.dcache.cpu_side::recvTimingReq: hasPC? 1, PC = 4928464, hasContextId? 1, contextID = 0, MemCmd: ReadReq, Size: 4, CmdDir: 1
system.cpu.icache.cpu_side::recvTimingReq: hasPC? 1, PC = 4928336, hasContextId? 1, contextID = 0, Vaddr: 4928320, Paddr: 734016
system.cpu.icache.cpu_side::recvTimingReq: hasPC? 1, PC = 4928288, hasContextId? 1, contextID = 0, Vaddr: 4928256, Paddr: 733952
system.cpu.icache.cpu_side::recvTimingReq: hasPC? 1, PC = 4928320, hasContextId? 1, contextID = 0, Vaddr: 4928320, Paddr: 734016
system.cpu.icache.cpu_side::recvTimingReq: hasPC? 1, PC = 4928381, hasContextId? 1, contextID = 0, Vaddr: 4928384, Paddr: 734080
system.cpu.dcache.cpu_side::recvTimingReq: hasPC? 1, PC = 4928298, hasContextId? 1, contextID = 0, MemCmd: ReadReq, Size: 8, CmdDir: 1
system.cpu.dcache.cpu_side::recvTimingReq: hasPC? 1, PC = 4928312, hasContextId? 1, contextID = 0, MemCmd: ReadReq, Size: 8, CmdDir: 1
system.cpu.dcache.cpu_side::recvTimingReq: hasPC? 1, PC = 4928324, hasContextId? 1, contextID = 0, MemCmd: ReadReq, Size: 8, CmdDir: 1
system.cpu.dcache.cpu_side::recvTimingReq: hasPC? 1, PC = 4928428, hasContextId? 1, contextID = 0, MemCmd: ReadReq, Size: 8, CmdDir: 1
system.cpu.icache.cpu_side::recvTimingReq: hasPC? 1, PC = 4928288, hasContextId? 1, contextID = 0, Vaddr: 4928256, Paddr: 733952
system.cpu.icache.cpu_side::recvTimingReq: hasPC? 1, PC = 4928320, hasContextId? 1, contextID = 0, Vaddr: 4928320, Paddr: 734016
system.cpu.icache.cpu_side::recvTimingReq: hasPC? 1, PC = 4928381, hasContextId? 1, contextID = 0, Vaddr: 4928384, Paddr: 734080
system.cpu.dcache.cpu_side::recvTimingReq: hasPC? 1, PC = 4928298, hasContextId? 1, contextID = 0, MemCmd: ReadReq, Size: 8, CmdDir: 1
system.cpu.dcache.cpu_side::recvTimingReq: hasPC? 1, PC = 4928312, hasContextId? 1, contextID = 0, MemCmd: ReadReq, Size: 8, CmdDir: 1
system.cpu.dcache.cpu_side::recvTimingReq: hasPC? 1, PC = 4928324, hasContextId? 1, contextID = 0, MemCmd: ReadReq, Size: 8, CmdDir: 1
system.cpu.dcache.cpu_side::recvTimingReq: hasPC? 1, PC = 4928428, hasContextId? 1, contextID = 0, MemCmd: ReadReq, Size: 8, CmdDir: 1
system.cpu.icache.cpu_side::recvTimingReq: hasPC? 1, PC = 4928288, hasContextId? 1, contextID = 0, Vaddr: 4928256, Paddr: 733952
system.cpu.icache.cpu_side::recvTimingReq: hasPC? 1, PC = 4928320, hasContextId? 1, contextID = 0, Vaddr: 4928320, Paddr: 734016
system.cpu.icache.cpu_side::recvTimingReq: hasPC? 1, PC = 4928381, hasContextId? 1, contextID = 0, Vaddr: 4928384, Paddr: 734080
system.cpu.dcache.cpu_side::recvTimingReq: hasPC? 1, PC = 4928298, hasContextId? 1, contextID = 0, MemCmd: ReadReq, Size: 8, CmdDir: 1
system.cpu.dcache.cpu_side::recvTimingReq: hasPC? 1, PC = 4928312, hasContextId? 1, contextID = 0, MemCmd: ReadReq, Size: 8, CmdDir: 1
system.cpu.dcache.cpu_side::recvTimingReq: hasPC? 1, PC = 4928324, hasContextId? 1, contextID = 0, MemCmd: ReadReq, Size: 8, CmdDir: 1
system.cpu.icache.cpu_side::recvTimingReq: hasPC? 1, PC = 4928288, hasContextId? 1, contextID = 0, Vaddr: 4928256, Paddr: 733952
system.cpu.icache.cpu_side::recvTimingReq: hasPC? 1, PC = 4928320, hasContextId? 1, contextID = 0, Vaddr: 4928320, Paddr: 734016
system.cpu.icache.cpu_side::recvTimingReq: hasPC? 1, PC = 4928381, hasContextId? 1, contextID = 0, Vaddr: 4928384, Paddr: 734080
system.cpu.icache.cpu_side::recvTimingReq: hasPC? 1, PC = 4928536, hasContextId? 1, contextID = 0, Vaddr: 4928512, Paddr: 734208
system.cpu.icache.cpu_side::recvTimingReq: hasPC? 1, PC = 4928575, hasContextId? 1, contextID = 0, Vaddr: 4928576, Paddr: 734272
system.cpu.dcache.cpu_side::recvTimingReq: hasPC? 1, PC = 4928536, hasContextId? 1, contextID = 0, MemCmd: ReadReq, Size: 8, CmdDir: 1
system.cpu.dcache.cpu_side::recvTimingReq: hasPC? 1, PC = 4928544, hasContextId? 1, contextID = 0, MemCmd: ReadReq, Size: 8, CmdDir: 1
system.cpu.dcache.cpu_side::recvTimingReq: hasPC? 1, PC = 4928568, hasContextId? 1, contextID = 0, MemCmd: ReadReq, Size: 4, CmdDir: 1
system.cpu.icache.cpu_side::recvTimingReq: hasPC? 1, PC = 4928336, hasContextId? 1, contextID = 0, Vaddr: 4928320, Paddr: 734016
system.cpu.icache.cpu_side::recvTimingReq: hasPC? 1, PC = 4928288, hasContextId? 1, contextID = 0, Vaddr: 4928256, Paddr: 733952
system.cpu.icache.cpu_side::recvTimingReq: hasPC? 1, PC = 4928320, hasContextId? 1, contextID = 0, Vaddr: 4928320, Paddr: 734016
system.cpu.icache.cpu_side::recvTimingReq: hasPC? 1, PC = 4928381, hasContextId? 1, contextID = 0, Vaddr: 4928384, Paddr: 734080
system.cpu.dcache.cpu_side::recvTimingReq: hasPC? 1, PC = 4928312, hasContextId? 1, contextID = 0, MemCmd: ReadReq, Size: 8, CmdDir: 1
system.cpu.dcache.cpu_side::recvTimingReq: hasPC? 1, PC = 4928298, hasContextId? 1, contextID = 0, MemCmd: ReadReq, Size: 8, CmdDir: 1
system.cpu.dcache.cpu_side::recvTimingReq: hasPC? 1, PC = 4928324, hasContextId? 1, contextID = 0, MemCmd: ReadReq, Size: 8, CmdDir: 1
system.cpu.icache.cpu_side::recvTimingReq: hasPC? 1, PC = 4928312, hasContextId? 1, contextID = 0, Vaddr: 4928256, Paddr: 733952
system.cpu.icache.cpu_side::recvTimingReq: hasPC? 1, PC = 4928320, hasContextId? 1, contextID = 0, Vaddr: 4928320, Paddr: 734016
system.cpu.icache.cpu_side::recvTimingReq: hasPC? 1, PC = 4928381, hasContextId? 1, contextID = 0, Vaddr: 4928384, Paddr: 734080
system.cpu.dcache.cpu_side::recvTimingReq: hasPC? 1, PC = 4928312, hasContextId? 1, contextID = 0, MemCmd: ReadReq, Size: 8, CmdDir: 1
system.cpu.dcache.cpu_side::recvTimingReq: hasPC? 1, PC = 4928324, hasContextId? 1, contextID = 0, MemCmd: ReadReq, Size: 8, CmdDir: 1
system.cpu.dcache.cpu_side::recvTimingReq: hasPC? 1, PC = 4928428, hasContextId? 1, contextID = 0, MemCmd: ReadReq, Size: 8, CmdDir: 1
system.cpu.icache.cpu_side::recvTimingReq: hasPC? 1, PC = 4928288, hasContextId? 1, contextID = 0, Vaddr: 4928256, Paddr: 733952
system.cpu.icache.cpu_side::recvTimingReq: hasPC? 1, PC = 4928320, hasContextId? 1, contextID = 0, Vaddr: 4928320, Paddr: 734016
system.cpu.icache.cpu_side::recvTimingReq: hasPC? 1, PC = 4928381, hasContextId? 1, contextID = 0, Vaddr: 4928384, Paddr: 734080
system.cpu.dcache.cpu_side::recvTimingReq: hasPC? 1, PC = 4928298, hasContextId? 1, contextID = 0, MemCmd: ReadReq, Size: 8, CmdDir: 1
system.cpu.dcache.cpu_side::recvTimingReq: hasPC? 1, PC = 4928312, hasContextId? 1, contextID = 0, MemCmd: ReadReq, Size: 8, CmdDir: 1
system.cpu.dcache.cpu_side::recvTimingReq: hasPC? 1, PC = 4928324, hasContextId? 1, contextID = 0, MemCmd: ReadReq, Size: 8, CmdDir: 1
system.cpu.icache.cpu_side::recvTimingReq: hasPC? 1, PC = 4928504, hasContextId? 1, contextID = 0, Vaddr: 4928448, Paddr: 734144
system.cpu.icache.cpu_side::recvTimingReq: hasPC? 1, PC = 4928512, hasContextId? 1, contextID = 0, Vaddr: 4928512, Paddr: 734208
system.cpu.icache.cpu_side::recvTimingReq: hasPC? 1, PC = 4928575, hasContextId? 1, contextID = 0, Vaddr: 4928576, Paddr: 734272
system.cpu.dcache.cpu_side::recvTimingReq: hasPC? 1, PC = 4928504, hasContextId? 1, contextID = 0, MemCmd: ReadReq, Size: 4, CmdDir: 1
system.cpu.dcache.cpu_side::recvTimingReq: hasPC? 1, PC = 4928512, hasContextId? 1, contextID = 0, MemCmd: ReadReq, Size: 8, CmdDir: 1
system.cpu.dcache.cpu_side::recvTimingReq: hasPC? 1, PC = 4928536, hasContextId? 1, contextID = 0, MemCmd: ReadReq, Size: 8, CmdDir: 1
system.cpu.icache.cpu_side::recvTimingReq: hasPC? 1, PC = 4928336, hasContextId? 1, contextID = 0, Vaddr: 4928320, Paddr: 734016
system.cpu.icache.cpu_side::recvTimingReq: hasPC? 1, PC = 4928288, hasContextId? 1, contextID = 0, Vaddr: 4928256, Paddr: 733952
system.cpu.icache.cpu_side::recvTimingReq: hasPC? 1, PC = 4928320, hasContextId? 1, contextID = 0, Vaddr: 4928320, Paddr: 734016
system.cpu.icache.cpu_side::recvTimingReq: hasPC? 1, PC = 4928381, hasContextId? 1, contextID = 0, Vaddr: 4928384, Paddr: 734080
system.cpu.dcache.cpu_side::recvTimingReq: hasPC? 1, PC = 4928298, hasContextId? 1, contextID = 0, MemCmd: ReadReq, Size: 8, CmdDir: 1
system.cpu.dcache.cpu_side::recvTimingReq: hasPC? 1, PC = 4928312, hasContextId? 1, contextID = 0, MemCmd: ReadReq, Size: 8, CmdDir: 1
system.cpu.dcache.cpu_side::recvTimingReq: hasPC? 1, PC = 4928324, hasContextId? 1, contextID = 0, MemCmd: ReadReq, Size: 8, CmdDir: 1
system.cpu.icache.cpu_side::recvTimingReq: hasPC? 1, PC = 4928728, hasContextId? 1, contextID = 0, Vaddr: 4928704, Paddr: 734400
system.cpu.icache.cpu_side::recvTimingReq: hasPC? 1, PC = 4928768, hasContextId? 1, contextID = 0, Vaddr: 4928768, Paddr: 734464
system.cpu.dcache.cpu_side::recvTimingReq: hasPC? 1, PC = 4928728, hasContextId? 1, contextID = 0, MemCmd: ReadReq, Size: 8, CmdDir: 1
system.cpu.dcache.cpu_side::recvTimingReq: hasPC? 1, PC = 4928736, hasContextId? 1, contextID = 0, MemCmd: ReadReq, Size: 8, CmdDir: 1
system.cpu.icache.cpu_side::recvTimingReq: hasPC? 1, PC = 4928336, hasContextId? 1, contextID = 0, Vaddr: 4928320, Paddr: 734016
system.cpu.icache.cpu_side::recvTimingReq: hasPC? 1, PC = 4928288, hasContextId? 1, contextID = 0, Vaddr: 4928256, Paddr: 733952
system.cpu.icache.cpu_side::recvTimingReq: hasPC? 1, PC = 4928320, hasContextId? 1, contextID = 0, Vaddr: 4928320, Paddr: 734016
system.cpu.icache.cpu_side::recvTimingReq: hasPC? 1, PC = 4928381, hasContextId? 1, contextID = 0, Vaddr: 4928384, Paddr: 734080
system.cpu.dcache.cpu_side::recvTimingReq: hasPC? 1, PC = 4928312, hasContextId? 1, contextID = 0, MemCmd: ReadReq, Size: 8, CmdDir: 1
system.cpu.dcache.cpu_side::recvTimingReq: hasPC? 1, PC = 4928298, hasContextId? 1, contextID = 0, MemCmd: ReadReq, Size: 8, CmdDir: 1
system.cpu.dcache.cpu_side::recvTimingReq: hasPC? 1, PC = 4928324, hasContextId? 1, contextID = 0, MemCmd: ReadReq, Size: 8, CmdDir: 1
system.cpu.icache.cpu_side::recvTimingReq: hasPC? 1, PC = 4928320, hasContextId? 1, contextID = 0, Vaddr: 4928320, Paddr: 734016
system.cpu.icache.cpu_side::recvTimingReq: hasPC? 1, PC = 4928381, hasContextId? 1, contextID = 0, Vaddr: 4928384, Paddr: 734080
system.cpu.dcache.cpu_side::recvTimingReq: hasPC? 1, PC = 4928324, hasContextId? 1, contextID = 0, MemCmd: ReadReq, Size: 8, CmdDir: 1
system.cpu.dcache.cpu_side::recvTimingReq: hasPC? 1, PC = 4928428, hasContextId? 1, contextID = 0, MemCmd: ReadReq, Size: 8, CmdDir: 1
system.cpu.icache.cpu_side::recvTimingReq: hasPC? 1, PC = 4928288, hasContextId? 1, contextID = 0, Vaddr: 4928256, Paddr: 733952
system.cpu.icache.cpu_side::recvTimingReq: hasPC? 1, PC = 4928320, hasContextId? 1, contextID = 0, Vaddr: 4928320, Paddr: 734016
system.cpu.icache.cpu_side::recvTimingReq: hasPC? 1, PC = 4928381, hasContextId? 1, contextID = 0, Vaddr: 4928384, Paddr: 734080
system.cpu.dcache.cpu_side::recvTimingReq: hasPC? 1, PC = 4928298, hasContextId? 1, contextID = 0, MemCmd: ReadReq, Size: 8, CmdDir: 1
system.cpu.dcache.cpu_side::recvTimingReq: hasPC? 1, PC = 4928312, hasContextId? 1, contextID = 0, MemCmd: ReadReq, Size: 8, CmdDir: 1
system.cpu.dcache.cpu_side::recvTimingReq: hasPC? 1, PC = 4928324, hasContextId? 1, contextID = 0, MemCmd: ReadReq, Size: 8, CmdDir: 1
system.cpu.icache.cpu_side::recvTimingReq: hasPC? 1, PC = 4928696, hasContextId? 1, contextID = 0, Vaddr: 4928640, Paddr: 734336
system.cpu.icache.cpu_side::recvTimingReq: hasPC? 1, PC = 4928704, hasContextId? 1, contextID = 0, Vaddr: 4928704, Paddr: 734400
system.cpu.icache.cpu_side::recvTimingReq: hasPC? 1, PC = 4928768, hasContextId? 1, contextID = 0, Vaddr: 4928768, Paddr: 734464
system.cpu.dcache.cpu_side::recvTimingReq: hasPC? 1, PC = 4928696, hasContextId? 1, contextID = 0, MemCmd: ReadReq, Size: 8, CmdDir: 1
system.cpu.dcache.cpu_side::recvTimingReq: hasPC? 1, PC = 4928704, hasContextId? 1, contextID = 0, MemCmd: ReadReq, Size: 8, CmdDir: 1
system.cpu.dcache.cpu_side::recvTimingReq: hasPC? 1, PC = 4928728, hasContextId? 1, contextID = 0, MemCmd: ReadReq, Size: 8, CmdDir: 1
system.cpu.icache.cpu_side::recvTimingReq: hasPC? 1, PC = 4928336, hasContextId? 1, contextID = 0, Vaddr: 4928320, Paddr: 734016
system.cpu.icache.cpu_side::recvTimingReq: hasPC? 1, PC = 4928288, hasContextId? 1, contextID = 0, Vaddr: 4928256, Paddr: 733952
system.cpu.icache.cpu_side::recvTimingReq: hasPC? 1, PC = 4928320, hasContextId? 1, contextID = 0, Vaddr: 4928320, Paddr: 734016
system.cpu.icache.cpu_side::recvTimingReq: hasPC? 1, PC = 4928381, hasContextId? 1, contextID = 0, Vaddr: 4928384, Paddr: 734080
system.cpu.dcache.cpu_side::recvTimingReq: hasPC? 1, PC = 4928298, hasContextId? 1, contextID = 0, MemCmd: ReadReq, Size: 8, CmdDir: 1
system.cpu.dcache.cpu_side::recvTimingReq: hasPC? 1, PC = 4928312, hasContextId? 1, contextID = 0, MemCmd: ReadReq, Size: 8, CmdDir: 1
system.cpu.dcache.cpu_side::recvTimingReq: hasPC? 1, PC = 4928324, hasContextId? 1, contextID = 0, MemCmd: ReadReq, Size: 8, CmdDir: 1
system.cpu.icache.cpu_side::recvTimingReq: hasPC? 1, PC = 4928320, hasContextId? 1, contextID = 0, Vaddr: 4928320, Paddr: 734016
system.cpu.icache.cpu_side::recvTimingReq: hasPC? 1, PC = 4928381, hasContextId? 1, contextID = 0, Vaddr: 4928384, Paddr: 734080
system.cpu.dcache.cpu_side::recvTimingReq: hasPC? 1, PC = 4928324, hasContextId? 1, contextID = 0, MemCmd: ReadReq, Size: 8, CmdDir: 1
system.cpu.dcache.cpu_side::recvTimingReq: hasPC? 1, PC = 4928428, hasContextId? 1, contextID = 0, MemCmd: ReadReq, Size: 8, CmdDir: 1
system.cpu.dcache.cpu_side::recvTimingReq: hasPC? 1, PC = 4928429, hasContextId? 1, contextID = 0, MemCmd: ReadReq, Size: 8, CmdDir: 1
system.cpu.dcache.cpu_side::recvTimingReq: hasPC? 1, PC = 4928430, hasContextId? 1, contextID = 0, MemCmd: ReadReq, Size: 8, CmdDir: 1
system.cpu.icache.cpu_side::recvTimingReq: hasPC? 1, PC = 4928288, hasContextId? 1, contextID = 0, Vaddr: 4928256, Paddr: 733952
system.cpu.icache.cpu_side::recvTimingReq: hasPC? 1, PC = 4928320, hasContextId? 1, contextID = 0, Vaddr: 4928320, Paddr: 734016
system.cpu.icache.cpu_side::recvTimingReq: hasPC? 1, PC = 4928381, hasContextId? 1, contextID = 0, Vaddr: 4928384, Paddr: 734080
system.cpu.dcache.cpu_side::recvTimingReq: hasPC? 1, PC = 4928298, hasContextId? 1, contextID = 0, MemCmd: ReadReq, Size: 8, CmdDir: 1
system.cpu.dcache.cpu_side::recvTimingReq: hasPC? 1, PC = 4928312, hasContextId? 1, contextID = 0, MemCmd: ReadReq, Size: 8, CmdDir: 1
system.cpu.dcache.cpu_side::recvTimingReq: hasPC? 1, PC = 4928324, hasContextId? 1, contextID = 0, MemCmd: ReadReq, Size: 8, CmdDir: 1
system.cpu.icache.cpu_side::recvTimingReq: hasPC? 1, PC = 4928320, hasContextId? 1, contextID = 0, Vaddr: 4928320, Paddr: 734016
system.cpu.icache.cpu_side::recvTimingReq: hasPC? 1, PC = 4928381, hasContextId? 1, contextID = 0, Vaddr: 4928384, Paddr: 734080
system.cpu.dcache.cpu_side::recvTimingReq: hasPC? 1, PC = 4928324, hasContextId? 1, contextID = 0, MemCmd: ReadReq, Size: 8, CmdDir: 1
system.cpu.dcache.cpu_side::recvTimingReq: hasPC? 1, PC = 4928428, hasContextId? 1, contextID = 0, MemCmd: ReadReq, Size: 8, CmdDir: 1
system.cpu.dcache.cpu_side::recvTimingReq: hasPC? 1, PC = 4928428, hasContextId? 1, contextID = 0, MemCmd: ReadReq, Size: 8, CmdDir: 1
system.cpu.dcache.cpu_side::recvTimingReq: hasPC? 1, PC = 4928429, hasContextId? 1, contextID = 0, MemCmd: ReadReq, Size: 8, CmdDir: 1
system.cpu.dcache.cpu_side::recvTimingReq: hasPC? 1, PC = 4928430, hasContextId? 1, contextID = 0, MemCmd: ReadReq, Size: 8, CmdDir: 1
system.cpu.dcache.cpu_side::recvTimingReq: hasPC? 1, PC = 4928432, hasContextId? 1, contextID = 0, MemCmd: ReadReq, Size: 8, CmdDir: 1
system.cpu.dcache.cpu_side::recvTimingReq: hasPC? 1, PC = 4928434, hasContextId? 1, contextID = 0, MemCmd: ReadReq, Size: 8, CmdDir: 1
system.cpu.icache.cpu_side::recvTimingReq: hasPC? 1, PC = 4803233, hasContextId? 1, contextID = 0, Vaddr: 4803200, Paddr: 608896
system.cpu.icache.cpu_side::recvTimingReq: hasPC? 1, PC = 4803262, hasContextId? 1, contextID = 0, Vaddr: 4803264, Paddr: 608960
system.cpu.dcache.cpu_side::recvTimingReq: hasPC? 1, PC = 4803233, hasContextId? 1, contextID = 0, MemCmd: ReadReq, Size: 4, CmdDir: 1
system.cpu.icache.cpu_side::recvTimingReq: hasPC? 1, PC = 4803328, hasContextId? 1, contextID = 0, Vaddr: 4803328, Paddr: 609024
system.cpu.dcache.cpu_side::recvTimingReq: hasPC? 1, PC = 4803275, hasContextId? 1, contextID = 0, MemCmd: ReadReq, Size: 1, CmdDir: 1
system.cpu.icache.cpu_side::recvTimingReq: hasPC? 1, PC = 4911680, hasContextId? 1, contextID = 0, Vaddr: 4911680, Paddr: 717376
system.cpu.icache.cpu_side::recvTimingReq: hasPC? 1, PC = 4928288, hasContextId? 1, contextID = 0, Vaddr: 4928256, Paddr: 733952
system.cpu.icache.cpu_side::recvTimingReq: hasPC? 1, PC = 4928320, hasContextId? 1, contextID = 0, Vaddr: 4928320, Paddr: 734016
system.cpu.icache.cpu_side::recvTimingReq: hasPC? 1, PC = 4928381, hasContextId? 1, contextID = 0, Vaddr: 4928384, Paddr: 734080
system.cpu.dcache.cpu_side::recvTimingReq: hasPC? 1, PC = 4928298, hasContextId? 1, contextID = 0, MemCmd: ReadReq, Size: 8, CmdDir: 1
system.cpu.dcache.cpu_side::recvTimingReq: hasPC? 1, PC = 4928312, hasContextId? 1, contextID = 0, MemCmd: ReadReq, Size: 8, CmdDir: 1
system.cpu.dcache.cpu_side::recvTimingReq: hasPC? 1, PC = 4928324, hasContextId? 1, contextID = 0, MemCmd: ReadReq, Size: 8, CmdDir: 1
system.cpu.icache.cpu_side::recvTimingReq: hasPC? 1, PC = 4928320, hasContextId? 1, contextID = 0, Vaddr: 4928320, Paddr: 734016
system.cpu.icache.cpu_side::recvTimingReq: hasPC? 1, PC = 4928381, hasContextId? 1, contextID = 0, Vaddr: 4928384, Paddr: 734080
system.cpu.dcache.cpu_side::recvTimingReq: hasPC? 1, PC = 4928324, hasContextId? 1, contextID = 0, MemCmd: ReadReq, Size: 8, CmdDir: 1
system.cpu.dcache.cpu_side::recvTimingReq: hasPC? 1, PC = 4928428, hasContextId? 1, contextID = 0, MemCmd: ReadReq, Size: 8, CmdDir: 1
system.cpu.icache.cpu_side::recvTimingReq: hasPC? 1, PC = 4928288, hasContextId? 1, contextID = 0, Vaddr: 4928256, Paddr: 733952
system.cpu.icache.cpu_side::recvTimingReq: hasPC? 1, PC = 4928320, hasContextId? 1, contextID = 0, Vaddr: 4928320, Paddr: 734016
system.cpu.icache.cpu_side::recvTimingReq: hasPC? 1, PC = 4928381, hasContextId? 1, contextID = 0, Vaddr: 4928384, Paddr: 734080
system.cpu.dcache.cpu_side::recvTimingReq: hasPC? 1, PC = 4928298, hasContextId? 1, contextID = 0, MemCmd: ReadReq, Size: 8, CmdDir: 1
system.cpu.dcache.cpu_side::recvTimingReq: hasPC? 1, PC = 4928312, hasContextId? 1, contextID = 0, MemCmd: ReadReq, Size: 8, CmdDir: 1
system.cpu.dcache.cpu_side::recvTimingReq: hasPC? 1, PC = 4928324, hasContextId? 1, contextID = 0, MemCmd: ReadReq, Size: 8, CmdDir: 1
system.cpu.icache.cpu_side::recvTimingReq: hasPC? 1, PC = 4928664, hasContextId? 1, contextID = 0, Vaddr: 4928640, Paddr: 734336
system.cpu.icache.cpu_side::recvTimingReq: hasPC? 1, PC = 4928704, hasContextId? 1, contextID = 0, Vaddr: 4928704, Paddr: 734400
system.cpu.icache.cpu_side::recvTimingReq: hasPC? 1, PC = 4928768, hasContextId? 1, contextID = 0, Vaddr: 4928768, Paddr: 734464
system.cpu.dcache.cpu_side::recvTimingReq: hasPC? 1, PC = 4928664, hasContextId? 1, contextID = 0, MemCmd: ReadReq, Size: 4, CmdDir: 1
system.cpu.dcache.cpu_side::recvTimingReq: hasPC? 1, PC = 4928674, hasContextId? 1, contextID = 0, MemCmd: ReadReq, Size: 8, CmdDir: 1
system.cpu.dcache.cpu_side::recvTimingReq: hasPC? 1, PC = 4928696, hasContextId? 1, contextID = 0, MemCmd: ReadReq, Size: 8, CmdDir: 1
system.cpu.icache.cpu_side::recvTimingReq: hasPC? 1, PC = 4928336, hasContextId? 1, contextID = 0, Vaddr: 4928320, Paddr: 734016
system.cpu.icache.cpu_side::recvTimingReq: hasPC? 1, PC = 4928288, hasContextId? 1, contextID = 0, Vaddr: 4928256, Paddr: 733952
system.cpu.icache.cpu_side::recvTimingReq: hasPC? 1, PC = 4928320, hasContextId? 1, contextID = 0, Vaddr: 4928320, Paddr: 734016
system.cpu.icache.cpu_side::recvTimingReq: hasPC? 1, PC = 4928381, hasContextId? 1, contextID = 0, Vaddr: 4928384, Paddr: 734080
system.cpu.dcache.cpu_side::recvTimingReq: hasPC? 1, PC = 4928298, hasContextId? 1, contextID = 0, MemCmd: ReadReq, Size: 8, CmdDir: 1
system.cpu.dcache.cpu_side::recvTimingReq: hasPC? 1, PC = 4928312, hasContextId? 1, contextID = 0, MemCmd: ReadReq, Size: 8, CmdDir: 1
system.cpu.dcache.cpu_side::recvTimingReq: hasPC? 1, PC = 4928324, hasContextId? 1, contextID = 0, MemCmd: ReadReq, Size: 8, CmdDir: 1
system.cpu.icache.cpu_side::recvTimingReq: hasPC? 1, PC = 4928632, hasContextId? 1, contextID = 0, Vaddr: 4928576, Paddr: 734272
system.cpu.icache.cpu_side::recvTimingReq: hasPC? 1, PC = 4928639, hasContextId? 1, contextID = 0, Vaddr: 4928640, Paddr: 734336
system.cpu.icache.cpu_side::recvTimingReq: hasPC? 1, PC = 4928704, hasContextId? 1, contextID = 0, Vaddr: 4928704, Paddr: 734400
system.cpu.icache.cpu_side::recvTimingReq: hasPC? 1, PC = 4928768, hasContextId? 1, contextID = 0, Vaddr: 4928768, Paddr: 734464
system.cpu.dcache.cpu_side::recvTimingReq: hasPC? 1, PC = 4928632, hasContextId? 1, contextID = 0, MemCmd: ReadReq, Size: 4, CmdDir: 1
system.cpu.dcache.cpu_side::recvTimingReq: hasPC? 1, PC = 4928642, hasContextId? 1, contextID = 0, MemCmd: ReadReq, Size: 8, CmdDir: 1
system.cpu.dcache.cpu_side::recvTimingReq: hasPC? 1, PC = 4928664, hasContextId? 1, contextID = 0, MemCmd: ReadReq, Size: 4, CmdDir: 1
system.cpu.dcache.cpu_side::recvTimingReq: hasPC? 1, PC = 4928674, hasContextId? 1, contextID = 0, MemCmd: ReadReq, Size: 8, CmdDir: 1
system.cpu.dcache.cpu_side::recvTimingReq: hasPC? 1, PC = 4928696, hasContextId? 1, contextID = 0, MemCmd: ReadReq, Size: 8, CmdDir: 1
system.cpu.icache.cpu_side::recvTimingReq: hasPC? 1, PC = 4928336, hasContextId? 1, contextID = 0, Vaddr: 4928320, Paddr: 734016
system.cpu.icache.cpu_side::recvTimingReq: hasPC? 1, PC = 4928288, hasContextId? 1, contextID = 0, Vaddr: 4928256, Paddr: 733952
system.cpu.icache.cpu_side::recvTimingReq: hasPC? 1, PC = 4928320, hasContextId? 1, contextID = 0, Vaddr: 4928320, Paddr: 734016
system.cpu.icache.cpu_side::recvTimingReq: hasPC? 1, PC = 4928381, hasContextId? 1, contextID = 0, Vaddr: 4928384, Paddr: 734080
system.cpu.dcache.cpu_side::recvTimingReq: hasPC? 1, PC = 4928298, hasContextId? 1, contextID = 0, MemCmd: ReadReq, Size: 8, CmdDir: 1
system.cpu.dcache.cpu_side::recvTimingReq: hasPC? 1, PC = 4928312, hasContextId? 1, contextID = 0, MemCmd: ReadReq, Size: 8, CmdDir: 1
system.cpu.dcache.cpu_side::recvTimingReq: hasPC? 1, PC = 4928324, hasContextId? 1, contextID = 0, MemCmd: ReadReq, Size: 8, CmdDir: 1
system.cpu.icache.cpu_side::recvTimingReq: hasPC? 1, PC = 4928600, hasContextId? 1, contextID = 0, Vaddr: 4928576, Paddr: 734272
system.cpu.icache.cpu_side::recvTimingReq: hasPC? 1, PC = 4928639, hasContextId? 1, contextID = 0, Vaddr: 4928640, Paddr: 734336
system.cpu.icache.cpu_side::recvTimingReq: hasPC? 1, PC = 4928704, hasContextId? 1, contextID = 0, Vaddr: 4928704, Paddr: 734400
system.cpu.dcache.cpu_side::recvTimingReq: hasPC? 1, PC = 4928600, hasContextId? 1, contextID = 0, MemCmd: ReadReq, Size: 4, CmdDir: 1
system.cpu.icache.cpu_side::recvTimingReq: hasPC? 1, PC = 4928768, hasContextId? 1, contextID = 0, Vaddr: 4928768, Paddr: 734464
system.cpu.dcache.cpu_side::recvTimingReq: hasPC? 1, PC = 4928610, hasContextId? 1, contextID = 0, MemCmd: ReadReq, Size: 8, CmdDir: 1
system.cpu.dcache.cpu_side::recvTimingReq: hasPC? 1, PC = 4928632, hasContextId? 1, contextID = 0, MemCmd: ReadReq, Size: 4, CmdDir: 1
system.cpu.icache.cpu_side::recvTimingReq: hasPC? 1, PC = 4928336, hasContextId? 1, contextID = 0, Vaddr: 4928320, Paddr: 734016
system.cpu.icache.cpu_side::recvTimingReq: hasPC? 1, PC = 4928381, hasContextId? 1, contextID = 0, Vaddr: 4928384, Paddr: 734080
system.cpu.dcache.cpu_side::recvTimingReq: hasPC? 1, PC = 4928428, hasContextId? 1, contextID = 0, MemCmd: ReadReq, Size: 8, CmdDir: 1
system.cpu.dcache.cpu_side::recvTimingReq: hasPC? 1, PC = 4928429, hasContextId? 1, contextID = 0, MemCmd: ReadReq, Size: 8, CmdDir: 1
system.cpu.dcache.cpu_side::recvTimingReq: hasPC? 1, PC = 4928430, hasContextId? 1, contextID = 0, MemCmd: ReadReq, Size: 8, CmdDir: 1
system.cpu.dcache.cpu_side::recvTimingReq: hasPC? 1, PC = 4928432, hasContextId? 1, contextID = 0, MemCmd: ReadReq, Size: 8, CmdDir: 1
system.cpu.dcache.cpu_side::recvTimingReq: hasPC? 1, PC = 4928434, hasContextId? 1, contextID = 0, MemCmd: ReadReq, Size: 8, CmdDir: 1
system.cpu.icache.cpu_side::recvTimingReq: hasPC? 1, PC = 4803233, hasContextId? 1, contextID = 0, Vaddr: 4803200, Paddr: 608896
system.cpu.icache.cpu_side::recvTimingReq: hasPC? 1, PC = 4803262, hasContextId? 1, contextID = 0, Vaddr: 4803264, Paddr: 608960
system.cpu.dcache.cpu_side::recvTimingReq: hasPC? 1, PC = 4803233, hasContextId? 1, contextID = 0, MemCmd: ReadReq, Size: 4, CmdDir: 1
system.cpu.icache.cpu_side::recvTimingReq: hasPC? 1, PC = 4803328, hasContextId? 1, contextID = 0, Vaddr: 4803328, Paddr: 609024
system.cpu.dcache.cpu_side::recvTimingReq: hasPC? 1, PC = 4803275, hasContextId? 1, contextID = 0, MemCmd: ReadReq, Size: 1, CmdDir: 1
system.cpu.icache.cpu_side::recvTimingReq: hasPC? 1, PC = 4911680, hasContextId? 1, contextID = 0, Vaddr: 4911680, Paddr: 717376
system.cpu.icache.cpu_side::recvTimingReq: hasPC? 1, PC = 4928288, hasContextId? 1, contextID = 0, Vaddr: 4928256, Paddr: 733952
system.cpu.icache.cpu_side::recvTimingReq: hasPC? 1, PC = 4928320, hasContextId? 1, contextID = 0, Vaddr: 4928320, Paddr: 734016
system.cpu.icache.cpu_side::recvTimingReq: hasPC? 1, PC = 4928381, hasContextId? 1, contextID = 0, Vaddr: 4928384, Paddr: 734080
system.cpu.dcache.cpu_side::recvTimingReq: hasPC? 1, PC = 4928298, hasContextId? 1, contextID = 0, MemCmd: ReadReq, Size: 8, CmdDir: 1
system.cpu.dcache.cpu_side::recvTimingReq: hasPC? 1, PC = 4928312, hasContextId? 1, contextID = 0, MemCmd: ReadReq, Size: 8, CmdDir: 1
system.cpu.dcache.cpu_side::recvTimingReq: hasPC? 1, PC = 4928324, hasContextId? 1, contextID = 0, MemCmd: ReadReq, Size: 8, CmdDir: 1
system.cpu.icache.cpu_side::recvTimingReq: hasPC? 1, PC = 4928568, hasContextId? 1, contextID = 0, Vaddr: 4928512, Paddr: 734208
system.cpu.icache.cpu_side::recvTimingReq: hasPC? 1, PC = 4928575, hasContextId? 1, contextID = 0, Vaddr: 4928576, Paddr: 734272
system.cpu.icache.cpu_side::recvTimingReq: hasPC? 1, PC = 4928639, hasContextId? 1, contextID = 0, Vaddr: 4928640, Paddr: 734336
system.cpu.dcache.cpu_side::recvTimingReq: hasPC? 1, PC = 4928568, hasContextId? 1, contextID = 0, MemCmd: ReadReq, Size: 4, CmdDir: 1
system.cpu.icache.cpu_side::recvTimingReq: hasPC? 1, PC = 4928704, hasContextId? 1, contextID = 0, Vaddr: 4928704, Paddr: 734400
system.cpu.dcache.cpu_side::recvTimingReq: hasPC? 1, PC = 4928578, hasContextId? 1, contextID = 0, MemCmd: ReadReq, Size: 8, CmdDir: 1
system.cpu.dcache.cpu_side::recvTimingReq: hasPC? 1, PC = 4928600, hasContextId? 1, contextID = 0, MemCmd: ReadReq, Size: 4, CmdDir: 1
system.cpu.icache.cpu_side::recvTimingReq: hasPC? 1, PC = 4928768, hasContextId? 1, contextID = 0, Vaddr: 4928768, Paddr: 734464
system.cpu.dcache.cpu_side::recvTimingReq: hasPC? 1, PC = 4928610, hasContextId? 1, contextID = 0, MemCmd: ReadReq, Size: 8, CmdDir: 1
system.cpu.dcache.cpu_side::recvTimingReq: hasPC? 1, PC = 4928632, hasContextId? 1, contextID = 0, MemCmd: ReadReq, Size: 4, CmdDir: 1
system.cpu.icache.cpu_side::recvTimingReq: hasPC? 1, PC = 4928336, hasContextId? 1, contextID = 0, Vaddr: 4928320, Paddr: 734016
system.cpu.icache.cpu_side::recvTimingReq: hasPC? 1, PC = 4928288, hasContextId? 1, contextID = 0, Vaddr: 4928256, Paddr: 733952
system.cpu.icache.cpu_side::recvTimingReq: hasPC? 1, PC = 4928320, hasContextId? 1, contextID = 0, Vaddr: 4928320, Paddr: 734016
system.cpu.icache.cpu_side::recvTimingReq: hasPC? 1, PC = 4928381, hasContextId? 1, contextID = 0, Vaddr: 4928384, Paddr: 734080
system.cpu.dcache.cpu_side::recvTimingReq: hasPC? 1, PC = 4928298, hasContextId? 1, contextID = 0, MemCmd: ReadReq, Size: 8, CmdDir: 1
system.cpu.dcache.cpu_side::recvTimingReq: hasPC? 1, PC = 4928312, hasContextId? 1, contextID = 0, MemCmd: ReadReq, Size: 8, CmdDir: 1
system.cpu.dcache.cpu_side::recvTimingReq: hasPC? 1, PC = 4928324, hasContextId? 1, contextID = 0, MemCmd: ReadReq, Size: 8, CmdDir: 1
system.cpu.dcache.cpu_side::recvTimingReq: hasPC? 1, PC = 4928428, hasContextId? 1, contextID = 0, MemCmd: ReadReq, Size: 8, CmdDir: 1
system.cpu.dcache.cpu_side::recvTimingReq: hasPC? 1, PC = 4928429, hasContextId? 1, contextID = 0, MemCmd: ReadReq, Size: 8, CmdDir: 1
system.cpu.icache.cpu_side::recvTimingReq: hasPC? 1, PC = 4928288, hasContextId? 1, contextID = 0, Vaddr: 4928256, Paddr: 733952
system.cpu.icache.cpu_side::recvTimingReq: hasPC? 1, PC = 4928320, hasContextId? 1, contextID = 0, Vaddr: 4928320, Paddr: 734016
system.cpu.icache.cpu_side::recvTimingReq: hasPC? 1, PC = 4928381, hasContextId? 1, contextID = 0, Vaddr: 4928384, Paddr: 734080
system.cpu.dcache.cpu_side::recvTimingReq: hasPC? 1, PC = 4928298, hasContextId? 1, contextID = 0, MemCmd: ReadReq, Size: 8, CmdDir: 1
system.cpu.dcache.cpu_side::recvTimingReq: hasPC? 1, PC = 4928312, hasContextId? 1, contextID = 0, MemCmd: ReadReq, Size: 8, CmdDir: 1
system.cpu.dcache.cpu_side::recvTimingReq: hasPC? 1, PC = 4928324, hasContextId? 1, contextID = 0, MemCmd: ReadReq, Size: 8, CmdDir: 1
system.cpu.dcache.cpu_side::recvTimingReq: hasPC? 1, PC = 4928428, hasContextId? 1, contextID = 0, MemCmd: ReadReq, Size: 8, CmdDir: 1
system.cpu.dcache.cpu_side::recvTimingReq: hasPC? 1, PC = 4928429, hasContextId? 1, contextID = 0, MemCmd: ReadReq, Size: 8, CmdDir: 1
system.cpu.icache.cpu_side::recvTimingReq: hasPC? 1, PC = 4928288, hasContextId? 1, contextID = 0, Vaddr: 4928256, Paddr: 733952
system.cpu.icache.cpu_side::recvTimingReq: hasPC? 1, PC = 4928320, hasContextId? 1, contextID = 0, Vaddr: 4928320, Paddr: 734016
system.cpu.icache.cpu_side::recvTimingReq: hasPC? 1, PC = 4928288, hasContextId? 1, contextID = 0, Vaddr: 4928256, Paddr: 733952
system.cpu.icache.cpu_side::recvTimingReq: hasPC? 1, PC = 4928320, hasContextId? 1, contextID = 0, Vaddr: 4928320, Paddr: 734016
system.cpu.icache.cpu_side::recvTimingReq: hasPC? 1, PC = 4928288, hasContextId? 1, contextID = 0, Vaddr: 4928256, Paddr: 733952
system.cpu.icache.cpu_side::recvTimingReq: hasPC? 1, PC = 4928320, hasContextId? 1, contextID = 0, Vaddr: 4928320, Paddr: 734016
system.cpu.dcache.cpu_side::recvTimingReq: hasPC? 1, PC = 4928298, hasContextId? 1, contextID = 0, MemCmd: ReadReq, Size: 8, CmdDir: 1
system.cpu.dcache.cpu_side::recvTimingReq: hasPC? 1, PC = 4928312, hasContextId? 1, contextID = 0, MemCmd: ReadReq, Size: 8, CmdDir: 1
system.cpu.icache.cpu_side::recvTimingReq: hasPC? 1, PC = 4928288, hasContextId? 1, contextID = 0, Vaddr: 4928256, Paddr: 733952
system.cpu.dcache.cpu_side::recvTimingReq: hasPC? 1, PC = 4928324, hasContextId? 1, contextID = 0, MemCmd: ReadReq, Size: 8, CmdDir: 1
system.cpu.dcache.cpu_side::recvTimingReq: hasPC? 1, PC = 4928312, hasContextId? 1, contextID = 0, MemCmd: ReadReq, Size: 8, CmdDir: 1
system.cpu.icache.cpu_side::recvTimingReq: hasPC? 1, PC = 4928320, hasContextId? 1, contextID = 0, Vaddr: 4928320, Paddr: 734016
system.cpu.dcache.cpu_side::recvTimingReq: hasPC? 1, PC = 4928324, hasContextId? 1, contextID = 0, MemCmd: ReadReq, Size: 8, CmdDir: 1
system.cpu.icache.cpu_side::recvTimingReq: hasPC? 1, PC = 4928320, hasContextId? 1, contextID = 0, Vaddr: 4928320, Paddr: 734016
system.cpu.icache.cpu_side::recvTimingReq: hasPC? 1, PC = 4928288, hasContextId? 1, contextID = 0, Vaddr: 4928256, Paddr: 733952
system.cpu.icache.cpu_side::recvTimingReq: hasPC? 1, PC = 4928320, hasContextId? 1, contextID = 0, Vaddr: 4928320, Paddr: 734016
system.cpu.icache.cpu_side::recvTimingReq: hasPC? 1, PC = 4928381, hasContextId? 1, contextID = 0, Vaddr: 4928384, Paddr: 734080
system.cpu.dcache.cpu_side::recvTimingReq: hasPC? 1, PC = 4928324, hasContextId? 1, contextID = 0, MemCmd: ReadReq, Size: 8, CmdDir: 1
system.cpu.icache.cpu_side::recvTimingReq: hasPC? 1, PC = 4928464, hasContextId? 1, contextID = 0, Vaddr: 4928448, Paddr: 734144
system.cpu.icache.cpu_side::recvTimingReq: hasPC? 1, PC = 4928512, hasContextId? 1, contextID = 0, Vaddr: 4928512, Paddr: 734208
system.cpu.icache.cpu_side::recvTimingReq: hasPC? 1, PC = 4928575, hasContextId? 1, contextID = 0, Vaddr: 4928576, Paddr: 734272
system.cpu.dcache.cpu_side::recvTimingReq: hasPC? 1, PC = 4928464, hasContextId? 1, contextID = 0, MemCmd: ReadReq, Size: 4, CmdDir: 1
system.cpu.icache.cpu_side::recvTimingReq: hasPC? 1, PC = 4928639, hasContextId? 1, contextID = 0, Vaddr: 4928640, Paddr: 734336
system.cpu.dcache.cpu_side::recvTimingReq: hasPC? 1, PC = 4928478, hasContextId? 1, contextID = 0, MemCmd: ReadReq, Size: 8, CmdDir: 1
system.cpu.dcache.cpu_side::recvTimingReq: hasPC? 1, PC = 4928504, hasContextId? 1, contextID = 0, MemCmd: ReadReq, Size: 4, CmdDir: 1
system.cpu.dcache.cpu_side::recvTimingReq: hasPC? 1, PC = 4928512, hasContextId? 1, contextID = 0, MemCmd: ReadReq, Size: 8, CmdDir: 1
system.cpu.dcache.cpu_side::recvTimingReq: hasPC? 1, PC = 4928536, hasContextId? 1, contextID = 0, MemCmd: ReadReq, Size: 8, CmdDir: 1
system.cpu.icache.cpu_side::recvTimingReq: hasPC? 1, PC = 4928336, hasContextId? 1, contextID = 0, Vaddr: 4928320, Paddr: 734016
system.cpu.icache.cpu_side::recvTimingReq: hasPC? 1, PC = 4928288, hasContextId? 1, contextID = 0, Vaddr: 4928256, Paddr: 733952
system.cpu.icache.cpu_side::recvTimingReq: hasPC? 1, PC = 4928320, hasContextId? 1, contextID = 0, Vaddr: 4928320, Paddr: 734016
system.cpu.icache.cpu_side::recvTimingReq: hasPC? 1, PC = 4928381, hasContextId? 1, contextID = 0, Vaddr: 4928384, Paddr: 734080
system.cpu.dcache.cpu_side::recvTimingReq: hasPC? 1, PC = 4928298, hasContextId? 1, contextID = 0, MemCmd: ReadReq, Size: 8, CmdDir: 1
system.cpu.dcache.cpu_side::recvTimingReq: hasPC? 1, PC = 4928312, hasContextId? 1, contextID = 0, MemCmd: ReadReq, Size: 8, CmdDir: 1
system.cpu.dcache.cpu_side::recvTimingReq: hasPC? 1, PC = 4928324, hasContextId? 1, contextID = 0, MemCmd: ReadReq, Size: 8, CmdDir: 1
system.cpu.icache.cpu_side::recvTimingReq: hasPC? 1, PC = 4928320, hasContextId? 1, contextID = 0, Vaddr: 4928320, Paddr: 734016
system.cpu.icache.cpu_side::recvTimingReq: hasPC? 1, PC = 4928381, hasContextId? 1, contextID = 0, Vaddr: 4928384, Paddr: 734080
system.cpu.dcache.cpu_side::recvTimingReq: hasPC? 1, PC = 4928324, hasContextId? 1, contextID = 0, MemCmd: ReadReq, Size: 8, CmdDir: 1
system.cpu.dcache.cpu_side::recvTimingReq: hasPC? 1, PC = 4928428, hasContextId? 1, contextID = 0, MemCmd: ReadReq, Size: 8, CmdDir: 1
system.cpu.icache.cpu_side::recvTimingReq: hasPC? 1, PC = 4928288, hasContextId? 1, contextID = 0, Vaddr: 4928256, Paddr: 733952
system.cpu.icache.cpu_side::recvTimingReq: hasPC? 1, PC = 4928320, hasContextId? 1, contextID = 0, Vaddr: 4928320, Paddr: 734016
system.cpu.icache.cpu_side::recvTimingReq: hasPC? 1, PC = 4928381, hasContextId? 1, contextID = 0, Vaddr: 4928384, Paddr: 734080
system.cpu.dcache.cpu_side::recvTimingReq: hasPC? 1, PC = 4928298, hasContextId? 1, contextID = 0, MemCmd: ReadReq, Size: 8, CmdDir: 1
system.cpu.dcache.cpu_side::recvTimingReq: hasPC? 1, PC = 4928312, hasContextId? 1, contextID = 0, MemCmd: ReadReq, Size: 8, CmdDir: 1
system.cpu.dcache.cpu_side::recvTimingReq: hasPC? 1, PC = 4928324, hasContextId? 1, contextID = 0, MemCmd: ReadReq, Size: 8, CmdDir: 1
system.cpu.icache.cpu_side::recvTimingReq: hasPC? 1, PC = 4928320, hasContextId? 1, contextID = 0, Vaddr: 4928320, Paddr: 734016
system.cpu.icache.cpu_side::recvTimingReq: hasPC? 1, PC = 4928381, hasContextId? 1, contextID = 0, Vaddr: 4928384, Paddr: 734080
system.cpu.dcache.cpu_side::recvTimingReq: hasPC? 1, PC = 4928324, hasContextId? 1, contextID = 0, MemCmd: ReadReq, Size: 8, CmdDir: 1
system.cpu.dcache.cpu_side::recvTimingReq: hasPC? 1, PC = 4928428, hasContextId? 1, contextID = 0, MemCmd: ReadReq, Size: 8, CmdDir: 1
system.cpu.dcache.cpu_side::recvTimingReq: hasPC? 1, PC = 4928429, hasContextId? 1, contextID = 0, MemCmd: ReadReq, Size: 8, CmdDir: 1
system.cpu.dcache.cpu_side::recvTimingReq: hasPC? 1, PC = 4928430, hasContextId? 1, contextID = 0, MemCmd: ReadReq, Size: 8, CmdDir: 1
system.cpu.icache.cpu_side::recvTimingReq: hasPC? 1, PC = 4928288, hasContextId? 1, contextID = 0, Vaddr: 4928256, Paddr: 733952
system.cpu.icache.cpu_side::recvTimingReq: hasPC? 1, PC = 4928320, hasContextId? 1, contextID = 0, Vaddr: 4928320, Paddr: 734016
system.cpu.icache.cpu_side::recvTimingReq: hasPC? 1, PC = 4928288, hasContextId? 1, contextID = 0, Vaddr: 4928256, Paddr: 733952
system.cpu.icache.cpu_side::recvTimingReq: hasPC? 1, PC = 4928320, hasContextId? 1, contextID = 0, Vaddr: 4928320, Paddr: 734016
system.cpu.icache.cpu_side::recvTimingReq: hasPC? 1, PC = 4928288, hasContextId? 1, contextID = 0, Vaddr: 4928256, Paddr: 733952
system.cpu.dcache.cpu_side::recvTimingReq: hasPC? 1, PC = 4928298, hasContextId? 1, contextID = 0, MemCmd: ReadReq, Size: 8, CmdDir: 1
system.cpu.icache.cpu_side::recvTimingReq: hasPC? 1, PC = 4928320, hasContextId? 1, contextID = 0, Vaddr: 4928320, Paddr: 734016
system.cpu.dcache.cpu_side::recvTimingReq: hasPC? 1, PC = 4928324, hasContextId? 1, contextID = 0, MemCmd: ReadReq, Size: 8, CmdDir: 1
system.cpu.icache.cpu_side::recvTimingReq: hasPC? 1, PC = 4928288, hasContextId? 1, contextID = 0, Vaddr: 4928256, Paddr: 733952
system.cpu.dcache.cpu_side::recvTimingReq: hasPC? 1, PC = 4928324, hasContextId? 1, contextID = 0, MemCmd: ReadReq, Size: 8, CmdDir: 1
system.cpu.icache.cpu_side::recvTimingReq: hasPC? 1, PC = 4928320, hasContextId? 1, contextID = 0, Vaddr: 4928320, Paddr: 734016
system.cpu.dcache.cpu_side::recvTimingReq: hasPC? 1, PC = 4928298, hasContextId? 1, contextID = 0, MemCmd: ReadReq, Size: 8, CmdDir: 1
system.cpu.icache.cpu_side::recvTimingReq: hasPC? 1, PC = 4928381, hasContextId? 1, contextID = 0, Vaddr: 4928384, Paddr: 734080
system.cpu.dcache.cpu_side::recvTimingReq: hasPC? 1, PC = 4928339, hasContextId? 1, contextID = 0, MemCmd: WriteReq, Size: 8, CmdDir: 1
system.cpu.dcache.cpu_side::recvTimingReq: hasPC? 1, PC = 4928428, hasContextId? 1, contextID = 0, MemCmd: ReadReq, Size: 8, CmdDir: 1
system.cpu.dcache.cpu_side::recvTimingReq: hasPC? 1, PC = 4928346, hasContextId? 1, contextID = 0, MemCmd: WriteReq, Size: 4, CmdDir: 1
system.cpu.dcache.cpu_side::recvTimingReq: hasPC? 1, PC = 4928353, hasContextId? 1, contextID = 0, MemCmd: WriteReq, Size: 8, CmdDir: 1
system.cpu.dcache.cpu_side::recvTimingReq: hasPC? 1, PC = 4928360, hasContextId? 1, contextID = 0, MemCmd: WriteReq, Size: 8, CmdDir: 1
system.cpu.dcache.cpu_side::recvTimingReq: hasPC? 1, PC = 4928367, hasContextId? 1, contextID = 0, MemCmd: WriteReq, Size: 8, CmdDir: 1
system.cpu.dcache.cpu_side::recvTimingReq: hasPC? 1, PC = 4928428, hasContextId? 1, contextID = 0, MemCmd: ReadReq, Size: 8, CmdDir: 1
system.cpu.dcache.cpu_side::recvTimingReq: hasPC? 1, PC = 4928374, hasContextId? 1, contextID = 0, MemCmd: WriteReq, Size: 8, CmdDir: 1
system.cpu.dcache.cpu_side::recvTimingReq: hasPC? 1, PC = 4928429, hasContextId? 1, contextID = 0, MemCmd: ReadReq, Size: 8, CmdDir: 1
system.cpu.dcache.cpu_side::recvTimingReq: hasPC? 1, PC = 4928430, hasContextId? 1, contextID = 0, MemCmd: ReadReq, Size: 8, CmdDir: 1
system.cpu.dcache.cpu_side::recvTimingReq: hasPC? 1, PC = 4928432, hasContextId? 1, contextID = 0, MemCmd: ReadReq, Size: 8, CmdDir: 1
system.cpu.dcache.cpu_side::recvTimingReq: hasPC? 1, PC = 4928381, hasContextId? 1, contextID = 0, MemCmd: WriteReq, Size: 4, CmdDir: 1
system.cpu.dcache.cpu_side::recvTimingReq: hasPC? 1, PC = 4928434, hasContextId? 1, contextID = 0, MemCmd: ReadReq, Size: 8, CmdDir: 1
system.cpu.dcache.cpu_side::recvTimingReq: hasPC? 1, PC = 4928388, hasContextId? 1, contextID = 0, MemCmd: WriteReq, Size: 4, CmdDir: 1
system.cpu.icache.cpu_side::recvTimingReq: hasPC? 1, PC = 4803233, hasContextId? 1, contextID = 0, Vaddr: 4803200, Paddr: 608896
system.cpu.icache.cpu_side::recvTimingReq: hasPC? 1, PC = 4803262, hasContextId? 1, contextID = 0, Vaddr: 4803264, Paddr: 608960
system.cpu.dcache.cpu_side::recvTimingReq: hasPC? 1, PC = 4803233, hasContextId? 1, contextID = 0, MemCmd: ReadReq, Size: 4, CmdDir: 1
system.cpu.icache.cpu_side::recvTimingReq: hasPC? 1, PC = 4803328, hasContextId? 1, contextID = 0, Vaddr: 4803328, Paddr: 609024
system.cpu.dcache.cpu_side::recvTimingReq: hasPC? 1, PC = 4803275, hasContextId? 1, contextID = 0, MemCmd: ReadReq, Size: 1, CmdDir: 1
system.cpu.icache.cpu_side::recvTimingReq: hasPC? 1, PC = 4911680, hasContextId? 1, contextID = 0, Vaddr: 4911680, Paddr: 717376
system.cpu.dcache.cpu_side::recvTimingReq: hasPC? 1, PC = 4803262, hasContextId? 1, contextID = 0, MemCmd: WriteReq, Size: 8, CmdDir: 1
system.cpu.dcache.cpu_side::recvTimingReq: hasPC? 1, PC = 4911699, hasContextId? 1, contextID = 0, MemCmd: ReadReq, Size: 8, CmdDir: 1
system.cpu.icache.cpu_side::recvTimingReq: hasPC? 1, PC = 4803267, hasContextId? 1, contextID = 0, Vaddr: 4803264, Paddr: 608960
system.cpu.icache.cpu_side::recvTimingReq: hasPC? 1, PC = 4803328, hasContextId? 1, contextID = 0, Vaddr: 4803328, Paddr: 609024
system.cpu.dcache.cpu_side::recvTimingReq: hasPC? 1, PC = 4803275, hasContextId? 1, contextID = 0, MemCmd: ReadReq, Size: 1, CmdDir: 1
system.cpu.dcache.cpu_side::recvTimingReq: hasPC? 1, PC = 4803296, hasContextId? 1, contextID = 0, MemCmd: ReadReq, Size: 1, CmdDir: 1
system.cpu.icache.cpu_side::recvTimingReq: hasPC? 1, PC = 4803390, hasContextId? 1, contextID = 0, Vaddr: 4803392, Paddr: 609088
system.cpu.dcache.cpu_side::recvTimingReq: hasPC? 1, PC = 4803342, hasContextId? 1, contextID = 0, MemCmd: ReadReq, Size: 1, CmdDir: 1
system.cpu.icache.cpu_side::recvTimingReq: hasPC? 1, PC = 4803354, hasContextId? 1, contextID = 0, Vaddr: 4803328, Paddr: 609024
system.cpu.icache.cpu_side::recvTimingReq: hasPC? 1, PC = 4803390, hasContextId? 1, contextID = 0, Vaddr: 4803392, Paddr: 609088
system.cpu.dcache.cpu_side::recvTimingReq: hasPC? 1, PC = 4803372, hasContextId? 1, contextID = 0, MemCmd: ReadReq, Size: 1, CmdDir: 1
system.cpu.icache.cpu_side::recvTimingReq: hasPC? 1, PC = 4803296, hasContextId? 1, contextID = 0, Vaddr: 4803264, Paddr: 608960
system.cpu.icache.cpu_side::recvTimingReq: hasPC? 1, PC = 4803328, hasContextId? 1, contextID = 0, Vaddr: 4803328, Paddr: 609024
system.cpu.dcache.cpu_side::recvTimingReq: hasPC? 1, PC = 4803296, hasContextId? 1, contextID = 0, MemCmd: ReadReq, Size: 1, CmdDir: 1
system.cpu.icache.cpu_side::recvTimingReq: hasPC? 1, PC = 4803296, hasContextId? 1, contextID = 0, Vaddr: 4803264, Paddr: 608960
system.cpu.icache.cpu_side::recvTimingReq: hasPC? 1, PC = 4803328, hasContextId? 1, contextID = 0, Vaddr: 4803328, Paddr: 609024
system.cpu.dcache.cpu_side::recvTimingReq: hasPC? 1, PC = 4803342, hasContextId? 1, contextID = 0, MemCmd: ReadReq, Size: 1, CmdDir: 1
system.cpu.dcache.cpu_side::recvTimingReq: hasPC? 1, PC = 4803372, hasContextId? 1, contextID = 0, MemCmd: ReadReq, Size: 1, CmdDir: 1
system.cpu.icache.cpu_side::recvTimingReq: hasPC? 1, PC = 4803296, hasContextId? 1, contextID = 0, Vaddr: 4803264, Paddr: 608960
system.cpu.icache.cpu_side::recvTimingReq: hasPC? 1, PC = 4803328, hasContextId? 1, contextID = 0, Vaddr: 4803328, Paddr: 609024
system.cpu.icache.cpu_side::recvTimingReq: hasPC? 1, PC = 4803390, hasContextId? 1, contextID = 0, Vaddr: 4803392, Paddr: 609088
system.cpu.dcache.cpu_side::recvTimingReq: hasPC? 1, PC = 4803372, hasContextId? 1, contextID = 0, MemCmd: ReadReq, Size: 1, CmdDir: 1
system.cpu.dcache.cpu_side::recvTimingReq: hasPC? 1, PC = 4803296, hasContextId? 1, contextID = 0, MemCmd: ReadReq, Size: 1, CmdDir: 1
system.cpu.dcache.cpu_side::recvTimingReq: hasPC? 1, PC = 4803342, hasContextId? 1, contextID = 0, MemCmd: ReadReq, Size: 1, CmdDir: 1
system.cpu.dcache.cpu_side::recvTimingReq: hasPC? 1, PC = 4803372, hasContextId? 1, contextID = 0, MemCmd: ReadReq, Size: 1, CmdDir: 1
system.cpu.icache.cpu_side::recvTimingReq: hasPC? 1, PC = 4803354, hasContextId? 1, contextID = 0, Vaddr: 4803328, Paddr: 609024
system.cpu.icache.cpu_side::recvTimingReq: hasPC? 1, PC = 4803390, hasContextId? 1, contextID = 0, Vaddr: 4803392, Paddr: 609088
system.cpu.dcache.cpu_side::recvTimingReq: hasPC? 1, PC = 4803372, hasContextId? 1, contextID = 0, MemCmd: ReadReq, Size: 1, CmdDir: 1
system.cpu.icache.cpu_side::recvTimingReq: hasPC? 1, PC = 4803384, hasContextId? 1, contextID = 0, Vaddr: 4803328, Paddr: 609024
system.cpu.icache.cpu_side::recvTimingReq: hasPC? 1, PC = 4803390, hasContextId? 1, contextID = 0, Vaddr: 4803392, Paddr: 609088
system.cpu.icache.cpu_side::recvTimingReq: hasPC? 1, PC = 4803407, hasContextId? 1, contextID = 0, Vaddr: 4803392, Paddr: 609088
system.cpu.icache.cpu_side::recvTimingReq: hasPC? 1, PC = 4803454, hasContextId? 1, contextID = 0, Vaddr: 4803456, Paddr: 609152
system.cpu.dcache.cpu_side::recvTimingReq: hasPC? 1, PC = 4803417, hasContextId? 1, contextID = 0, MemCmd: ReadReq, Size: 4, CmdDir: 1
system.cpu.icache.cpu_side::recvTimingReq: hasPC? 1, PC = 4805008, hasContextId? 1, contextID = 0, Vaddr: 4804992, Paddr: 610688
system.cpu.dcache.cpu_side::recvTimingReq: hasPC? 1, PC = 4803431, hasContextId? 1, contextID = 0, MemCmd: WriteReq, Size: 4, CmdDir: 1
system.cpu.dcache.cpu_side::recvTimingReq: hasPC? 1, PC = 4803449, hasContextId? 1, contextID = 0, MemCmd: WriteReq, Size: 8, CmdDir: 1
system.cpu.icache.cpu_side::recvTimingReq: hasPC? 1, PC = 4805056, hasContextId? 1, contextID = 0, Vaddr: 4805056, Paddr: 610752
system.cpu.dcache.cpu_side::recvTimingReq: hasPC? 1, PC = 4805022, hasContextId? 1, contextID = 0, MemCmd: ReadReq, Size: 8, CmdDir: 1
system.cpu.dcache.cpu_side::recvTimingReq: hasPC? 1, PC = 4805034, hasContextId? 1, contextID = 0, MemCmd: ReadReq, Size: 8, CmdDir: 1
system.cpu.dcache.cpu_side::recvTimingReq: hasPC? 1, PC = 4805008, hasContextId? 1, contextID = 0, MemCmd: WriteReq, Size: 8, CmdDir: 1
system.cpu.dcache.cpu_side::recvTimingReq: hasPC? 1, PC = 4805010, hasContextId? 1, contextID = 0, MemCmd: WriteReq, Size: 8, CmdDir: 1
system.cpu.dcache.cpu_side::recvTimingReq: hasPC? 1, PC = 4805012, hasContextId? 1, contextID = 0, MemCmd: WriteReq, Size: 8, CmdDir: 1
system.cpu.dcache.cpu_side::recvTimingReq: hasPC? 1, PC = 4805014, hasContextId? 1, contextID = 0, MemCmd: WriteReq, Size: 8, CmdDir: 1
system.cpu.dcache.cpu_side::recvTimingReq: hasPC? 1, PC = 4805016, hasContextId? 1, contextID = 0, MemCmd: WriteReq, Size: 8, CmdDir: 1
system.cpu.dcache.cpu_side::recvTimingReq: hasPC? 1, PC = 4805017, hasContextId? 1, contextID = 0, MemCmd: WriteReq, Size: 8, CmdDir: 1
system.cpu.icache.cpu_side::recvTimingReq: hasPC? 1, PC = 4805115, hasContextId? 1, contextID = 0, Vaddr: 4805120, Paddr: 610816
system.cpu.icache.cpu_side::recvTimingReq: hasPC? 1, PC = 4805081, hasContextId? 1, contextID = 0, Vaddr: 4805056, Paddr: 610752
system.cpu.icache.cpu_side::recvTimingReq: hasPC? 1, PC = 4805115, hasContextId? 1, contextID = 0, Vaddr: 4805120, Paddr: 610816
system.cpu.dcache.cpu_side::recvTimingReq: hasPC? 1, PC = 4805081, hasContextId? 1, contextID = 0, MemCmd: ReadReq, Size: 4, CmdDir: 1
system.cpu.dcache.cpu_side::recvTimingReq: hasPC? 1, PC = 4805086, hasContextId? 1, contextID = 0, MemCmd: ReadReq, Size: 8, CmdDir: 1
system.cpu.dcache.cpu_side::recvTimingReq: hasPC? 1, PC = 4805090, hasContextId? 1, contextID = 0, MemCmd: ReadReq, Size: 8, CmdDir: 1
system.cpu.dcache.cpu_side::recvTimingReq: hasPC? 1, PC = 4805094, hasContextId? 1, contextID = 0, MemCmd: ReadReq, Size: 8, CmdDir: 1
system.cpu.dcache.cpu_side::recvTimingReq: hasPC? 1, PC = 4805098, hasContextId? 1, contextID = 0, MemCmd: ReadReq, Size: 8, CmdDir: 1
system.cpu.icache.cpu_side::recvTimingReq: hasPC? 1, PC = 4805183, hasContextId? 1, contextID = 0, Vaddr: 4805184, Paddr: 610880
system.cpu.icache.cpu_side::recvTimingReq: hasPC? 1, PC = 4805191, hasContextId? 1, contextID = 0, Vaddr: 4805184, Paddr: 610880
system.cpu.icache.cpu_side::recvTimingReq: hasPC? 1, PC = 4805072, hasContextId? 1, contextID = 0, Vaddr: 4805056, Paddr: 610752
system.cpu.icache.cpu_side::recvTimingReq: hasPC? 1, PC = 4805115, hasContextId? 1, contextID = 0, Vaddr: 4805120, Paddr: 610816
system.cpu.icache.cpu_side::recvTimingReq: hasPC? 1, PC = 4805191, hasContextId? 1, contextID = 0, Vaddr: 4805184, Paddr: 610880
system.cpu.dcache.cpu_side::recvTimingReq: hasPC? 1, PC = 4805081, hasContextId? 1, contextID = 0, MemCmd: ReadReq, Size: 4, CmdDir: 1
system.cpu.dcache.cpu_side::recvTimingReq: hasPC? 1, PC = 4805086, hasContextId? 1, contextID = 0, MemCmd: ReadReq, Size: 8, CmdDir: 1
system.cpu.dcache.cpu_side::recvTimingReq: hasPC? 1, PC = 4805090, hasContextId? 1, contextID = 0, MemCmd: ReadReq, Size: 8, CmdDir: 1
system.cpu.dcache.cpu_side::recvTimingReq: hasPC? 1, PC = 4805094, hasContextId? 1, contextID = 0, MemCmd: ReadReq, Size: 8, CmdDir: 1
system.cpu.dcache.cpu_side::recvTimingReq: hasPC? 1, PC = 4805098, hasContextId? 1, contextID = 0, MemCmd: ReadReq, Size: 8, CmdDir: 1
system.cpu.icache.cpu_side::recvTimingReq: hasPC? 1, PC = 4805072, hasContextId? 1, contextID = 0, Vaddr: 4805056, Paddr: 610752
system.cpu.icache.cpu_side::recvTimingReq: hasPC? 1, PC = 4805115, hasContextId? 1, contextID = 0, Vaddr: 4805120, Paddr: 610816
system.cpu.icache.cpu_side::recvTimingReq: hasPC? 1, PC = 4805183, hasContextId? 1, contextID = 0, Vaddr: 4805184, Paddr: 610880
system.cpu.dcache.cpu_side::recvTimingReq: hasPC? 1, PC = 4805081, hasContextId? 1, contextID = 0, MemCmd: ReadReq, Size: 4, CmdDir: 1
system.cpu.dcache.cpu_side::recvTimingReq: hasPC? 1, PC = 4805081, hasContextId? 1, contextID = 0, MemCmd: ReadReq, Size: 4, CmdDir: 1
system.cpu.dcache.cpu_side::recvTimingReq: hasPC? 1, PC = 4805086, hasContextId? 1, contextID = 0, MemCmd: ReadReq, Size: 8, CmdDir: 1
system.cpu.dcache.cpu_side::recvTimingReq: hasPC? 1, PC = 4805090, hasContextId? 1, contextID = 0, MemCmd: ReadReq, Size: 8, CmdDir: 1
system.cpu.dcache.cpu_side::recvTimingReq: hasPC? 1, PC = 4805094, hasContextId? 1, contextID = 0, MemCmd: ReadReq, Size: 8, CmdDir: 1
system.cpu.dcache.cpu_side::recvTimingReq: hasPC? 1, PC = 4805098, hasContextId? 1, contextID = 0, MemCmd: ReadReq, Size: 8, CmdDir: 1
system.cpu.icache.cpu_side::recvTimingReq: hasPC? 1, PC = 4805191, hasContextId? 1, contextID = 0, Vaddr: 4805184, Paddr: 610880
system.cpu.icache.cpu_side::recvTimingReq: hasPC? 1, PC = 4805246, hasContextId? 1, contextID = 0, Vaddr: 4805248, Paddr: 610944
system.cpu.dcache.cpu_side::recvTimingReq: hasPC? 1, PC = 4805191, hasContextId? 1, contextID = 0, MemCmd: ReadReq, Size: 8, CmdDir: 1
system.cpu.dcache.cpu_side::recvTimingReq: hasPC? 1, PC = 4805236, hasContextId? 1, contextID = 0, MemCmd: ReadReq, Size: 8, CmdDir: 1
system.cpu.icache.cpu_side::recvTimingReq: hasPC? 1, PC = 4915456, hasContextId? 1, contextID = 0, Vaddr: 4915456, Paddr: 721152
system.cpu.dcache.cpu_side::recvTimingReq: hasPC? 1, PC = 4805115, hasContextId? 1, contextID = 0, MemCmd: WriteReq, Size: 8, CmdDir: 1
system.cpu.dcache.cpu_side::recvTimingReq: hasPC? 1, PC = 4805124, hasContextId? 1, contextID = 0, MemCmd: WriteReq, Size: 8, CmdDir: 1
system.cpu.dcache.cpu_side::recvTimingReq: hasPC? 1, PC = 4805211, hasContextId? 1, contextID = 0, MemCmd: WriteReq, Size: 8, CmdDir: 1
system.cpu.dcache.cpu_side::recvTimingReq: hasPC? 1, PC = 4915470, hasContextId? 1, contextID = 0, MemCmd: ReadReq, Size: 8, CmdDir: 1
system.cpu.dcache.cpu_side::recvTimingReq: hasPC? 1, PC = 4915485, hasContextId? 1, contextID = 0, MemCmd: ReadReq, Size: 4, CmdDir: 1
system.cpu.dcache.cpu_side::recvTimingReq: hasPC? 1, PC = 4915517, hasContextId? 1, contextID = 0, MemCmd: ReadReq, Size: 8, CmdDir: 1
system.cpu.dcache.cpu_side::recvTimingReq: hasPC? 1, PC = 4915456, hasContextId? 1, contextID = 0, MemCmd: WriteReq, Size: 8, CmdDir: 1
system.cpu.dcache.cpu_side::recvTimingReq: hasPC? 1, PC = 4915461, hasContextId? 1, contextID = 0, MemCmd: WriteReq, Size: 8, CmdDir: 1
system.cpu.icache.cpu_side::recvTimingReq: hasPC? 1, PC = 4805216, hasContextId? 1, contextID = 0, Vaddr: 4805184, Paddr: 610880
system.cpu.icache.cpu_side::recvTimingReq: hasPC? 1, PC = 4805246, hasContextId? 1, contextID = 0, Vaddr: 4805248, Paddr: 610944
system.cpu.dcache.cpu_side::recvTimingReq: hasPC? 1, PC = 4805216, hasContextId? 1, contextID = 0, MemCmd: ReadReq, Size: 8, CmdDir: 1
system.cpu.dcache.cpu_side::recvTimingReq: hasPC? 1, PC = 4805236, hasContextId? 1, contextID = 0, MemCmd: ReadReq, Size: 8, CmdDir: 1
system.cpu.icache.cpu_side::recvTimingReq: hasPC? 1, PC = 4915520, hasContextId? 1, contextID = 0, Vaddr: 4915520, Paddr: 721216
system.cpu.icache.cpu_side::recvTimingReq: hasPC? 1, PC = 4915583, hasContextId? 1, contextID = 0, Vaddr: 4915584, Paddr: 721280
system.cpu.dcache.cpu_side::recvTimingReq: hasPC? 1, PC = 4915534, hasContextId? 1, contextID = 0, MemCmd: ReadReq, Size: 8, CmdDir: 1
system.cpu.icache.cpu_side::recvTimingReq: hasPC? 1, PC = 5115024, hasContextId? 1, contextID = 0, Vaddr: 5115008, Paddr: 920704
system.cpu.dcache.cpu_side::recvTimingReq: hasPC? 1, PC = 4915522, hasContextId? 1, contextID = 0, MemCmd: WriteReq, Size: 8, CmdDir: 1
system.cpu.dcache.cpu_side::recvTimingReq: hasPC? 1, PC = 5115058, hasContextId? 1, contextID = 0, MemCmd: ReadReq, Size: 8, CmdDir: 1
system.cpu.dcache.cpu_side::recvTimingReq: hasPC? 1, PC = 5115047, hasContextId? 1, contextID = 0, MemCmd: WriteReq, Size: 8, CmdDir: 1
system.cpu.icache.cpu_side::recvTimingReq: hasPC? 1, PC = 4915527, hasContextId? 1, contextID = 0, Vaddr: 4915520, Paddr: 721216
system.cpu.icache.cpu_side::recvTimingReq: hasPC? 1, PC = 4915583, hasContextId? 1, contextID = 0, Vaddr: 4915584, Paddr: 721280
system.cpu.dcache.cpu_side::recvTimingReq: hasPC? 1, PC = 4915534, hasContextId? 1, contextID = 0, MemCmd: ReadReq, Size: 8, CmdDir: 1
system.cpu.icache.cpu_side::recvTimingReq: hasPC? 1, PC = 5115024, hasContextId? 1, contextID = 0, Vaddr: 5115008, Paddr: 920704
system.cpu.dcache.cpu_side::recvTimingReq: hasPC? 1, PC = 4915547, hasContextId? 1, contextID = 0, MemCmd: WriteReq, Size: 8, CmdDir: 1
system.cpu.dcache.cpu_side::recvTimingReq: hasPC? 1, PC = 5115058, hasContextId? 1, contextID = 0, MemCmd: ReadReq, Size: 8, CmdDir: 1
system.cpu.dcache.cpu_side::recvTimingReq: hasPC? 1, PC = 5115047, hasContextId? 1, contextID = 0, MemCmd: WriteReq, Size: 8, CmdDir: 1
system.cpu.icache.cpu_side::recvTimingReq: hasPC? 1, PC = 4915552, hasContextId? 1, contextID = 0, Vaddr: 4915520, Paddr: 721216
system.cpu.icache.cpu_side::recvTimingReq: hasPC? 1, PC = 4915583, hasContextId? 1, contextID = 0, Vaddr: 4915584, Paddr: 721280
system.cpu.dcache.cpu_side::recvTimingReq: hasPC? 1, PC = 4915568, hasContextId? 1, contextID = 0, MemCmd: ReadReq, Size: 8, CmdDir: 1
system.cpu.icache.cpu_side::recvTimingReq: hasPC? 1, PC = 4915500, hasContextId? 1, contextID = 0, Vaddr: 4915456, Paddr: 721152
system.cpu.dcache.cpu_side::recvTimingReq: hasPC? 1, PC = 4915503, hasContextId? 1, contextID = 0, MemCmd: ReadReq, Size: 8, CmdDir: 1
system.cpu.dcache.cpu_side::recvTimingReq: hasPC? 1, PC = 4915508, hasContextId? 1, contextID = 0, MemCmd: ReadReq, Size: 8, CmdDir: 1
system.cpu.dcache.cpu_side::recvTimingReq: hasPC? 1, PC = 4915517, hasContextId? 1, contextID = 0, MemCmd: ReadReq, Size: 8, CmdDir: 1
system.cpu.icache.cpu_side::recvTimingReq: hasPC? 1, PC = 4805216, hasContextId? 1, contextID = 0, Vaddr: 4805184, Paddr: 610880
system.cpu.icache.cpu_side::recvTimingReq: hasPC? 1, PC = 4805246, hasContextId? 1, contextID = 0, Vaddr: 4805248, Paddr: 610944
system.cpu.dcache.cpu_side::recvTimingReq: hasPC? 1, PC = 4805216, hasContextId? 1, contextID = 0, MemCmd: ReadReq, Size: 8, CmdDir: 1
system.cpu.dcache.cpu_side::recvTimingReq: hasPC? 1, PC = 4805236, hasContextId? 1, contextID = 0, MemCmd: ReadReq, Size: 8, CmdDir: 1
system.cpu.icache.cpu_side::recvTimingReq: hasPC? 1, PC = 4805312, hasContextId? 1, contextID = 0, Vaddr: 4805312, Paddr: 611008
system.cpu.dcache.cpu_side::recvTimingReq: hasPC? 1, PC = 4805221, hasContextId? 1, contextID = 0, MemCmd: WriteReq, Size: 8, CmdDir: 1
system.cpu.dcache.cpu_side::recvTimingReq: hasPC? 1, PC = 4805307, hasContextId? 1, contextID = 0, MemCmd: ReadReq, Size: 8, CmdDir: 1
system.cpu.icache.cpu_side::recvTimingReq: hasPC? 1, PC = 4895744, hasContextId? 1, contextID = 0, Vaddr: 4895744, Paddr: 701440
system.cpu.dcache.cpu_side::recvTimingReq: hasPC? 1, PC = 4805270, hasContextId? 1, contextID = 0, MemCmd: WriteReq, Size: 8, CmdDir: 1
system.cpu.icache.cpu_side::recvTimingReq: hasPC? 1, PC = 4895805, hasContextId? 1, contextID = 0, Vaddr: 4895808, Paddr: 701504
system.cpu.dcache.cpu_side::recvTimingReq: hasPC? 1, PC = 4895758, hasContextId? 1, contextID = 0, MemCmd: ReadReq, Size: 1, CmdDir: 1
system.cpu.icache.cpu_side::recvTimingReq: hasPC? 1, PC = 4895872, hasContextId? 1, contextID = 0, Vaddr: 4895872, Paddr: 701568
system.cpu.dcache.cpu_side::recvTimingReq: hasPC? 1, PC = 4805283, hasContextId? 1, contextID = 0, MemCmd: WriteReq, Size: 8, CmdDir: 1
system.cpu.dcache.cpu_side::recvTimingReq: hasPC? 1, PC = 4805288, hasContextId? 1, contextID = 0, MemCmd: WriteReq, Size: 8, CmdDir: 1
system.cpu.icache.cpu_side::recvTimingReq: hasPC? 1, PC = 4895936, hasContextId? 1, contextID = 0, Vaddr: 4895936, Paddr: 701632
system.cpu.dcache.cpu_side::recvTimingReq: hasPC? 1, PC = 4895904, hasContextId? 1, contextID = 0, MemCmd: ReadReq, Size: 1, CmdDir: 1
system.cpu.icache.cpu_side::recvTimingReq: hasPC? 1, PC = 4895936, hasContextId? 1, contextID = 0, Vaddr: 4895936, Paddr: 701632
system.cpu.dcache.cpu_side::recvTimingReq: hasPC? 1, PC = 4805295, hasContextId? 1, contextID = 0, MemCmd: WriteReq, Size: 1, CmdDir: 1
system.cpu.dcache.cpu_side::recvTimingReq: hasPC? 1, PC = 4805302, hasContextId? 1, contextID = 0, MemCmd: WriteReq, Size: 8, CmdDir: 1
system.cpu.dcache.cpu_side::recvTimingReq: hasPC? 1, PC = 4895872, hasContextId? 1, contextID = 0, MemCmd: WriteReq, Size: 8, CmdDir: 1
system.cpu.icache.cpu_side::recvTimingReq: hasPC? 1, PC = 4895999, hasContextId? 1, contextID = 0, Vaddr: 4896000, Paddr: 701696
system.cpu.dcache.cpu_side::recvTimingReq: hasPC? 1, PC = 4895954, hasContextId? 1, contextID = 0, MemCmd: ReadReq, Size: 8, CmdDir: 1
system.cpu.dcache.cpu_side::recvTimingReq: hasPC? 1, PC = 4895957, hasContextId? 1, contextID = 0, MemCmd: ReadReq, Size: 8, CmdDir: 1
system.cpu.dcache.cpu_side::recvTimingReq: hasPC? 1, PC = 4895961, hasContextId? 1, contextID = 0, MemCmd: ReadReq, Size: 8, CmdDir: 1
system.cpu.dcache.cpu_side::recvTimingReq: hasPC? 1, PC = 4895965, hasContextId? 1, contextID = 0, MemCmd: ReadReq, Size: 8, CmdDir: 1
system.cpu.dcache.cpu_side::recvTimingReq: hasPC? 1, PC = 4895996, hasContextId? 1, contextID = 0, MemCmd: ReadReq, Size: 8, CmdDir: 1
system.cpu.icache.cpu_side::recvTimingReq: hasPC? 1, PC = 4896048, hasContextId? 1, contextID = 0, Vaddr: 4896000, Paddr: 701696
system.cpu.dcache.cpu_side::recvTimingReq: hasPC? 1, PC = 4895969, hasContextId? 1, contextID = 0, MemCmd: WriteReq, Size: 8, CmdDir: 1
system.cpu.dcache.cpu_side::recvTimingReq: hasPC? 1, PC = 4896051, hasContextId? 1, contextID = 0, MemCmd: ReadReq, Size: 8, CmdDir: 1
system.cpu.dcache.cpu_side::recvTimingReq: hasPC? 1, PC = 4896062, hasContextId? 1, contextID = 0, MemCmd: ReadReq, Size: 8, CmdDir: 1
system.cpu.icache.cpu_side::recvTimingReq: hasPC? 1, PC = 4805307, hasContextId? 1, contextID = 0, Vaddr: 4805248, Paddr: 610944
system.cpu.icache.cpu_side::recvTimingReq: hasPC? 1, PC = 4805312, hasContextId? 1, contextID = 0, Vaddr: 4805312, Paddr: 611008
system.cpu.icache.cpu_side::recvTimingReq: hasPC? 1, PC = 4805373, hasContextId? 1, contextID = 0, Vaddr: 4805376, Paddr: 611072
system.cpu.dcache.cpu_side::recvTimingReq: hasPC? 1, PC = 4805307, hasContextId? 1, contextID = 0, MemCmd: ReadReq, Size: 8, CmdDir: 1
system.cpu.dcache.cpu_side::recvTimingReq: hasPC? 1, PC = 4895972, hasContextId? 1, contextID = 0, MemCmd: WriteReq, Size: 8, CmdDir: 1
system.cpu.dcache.cpu_side::recvTimingReq: hasPC? 1, PC = 4895976, hasContextId? 1, contextID = 0, MemCmd: WriteReq, Size: 8, CmdDir: 1
system.cpu.dcache.cpu_side::recvTimingReq: hasPC? 1, PC = 4895980, hasContextId? 1, contextID = 0, MemCmd: WriteReq, Size: 8, CmdDir: 1
system.cpu.dcache.cpu_side::recvTimingReq: hasPC? 1, PC = 4805326, hasContextId? 1, contextID = 0, MemCmd: WriteReq, Size: 8, CmdDir: 1
system.cpu.icache.cpu_side::recvTimingReq: hasPC? 1, PC = 4805430, hasContextId? 1, contextID = 0, Vaddr: 4805440, Paddr: 611136
system.cpu.dcache.cpu_side::recvTimingReq: hasPC? 1, PC = 4805335, hasContextId? 1, contextID = 0, MemCmd: WriteReq, Size: 8, CmdDir: 1
system.cpu.dcache.cpu_side::recvTimingReq: hasPC? 1, PC = 4805338, hasContextId? 1, contextID = 0, MemCmd: WriteReq, Size: 8, CmdDir: 1
system.cpu.icache.cpu_side::recvTimingReq: hasPC? 1, PC = 4805392, hasContextId? 1, contextID = 0, Vaddr: 4805376, Paddr: 611072
system.cpu.icache.cpu_side::recvTimingReq: hasPC? 1, PC = 4805430, hasContextId? 1, contextID = 0, Vaddr: 4805440, Paddr: 611136
system.cpu.dcache.cpu_side::recvTimingReq: hasPC? 1, PC = 4805392, hasContextId? 1, contextID = 0, MemCmd: ReadReq, Size: 1, CmdDir: 1
system.cpu.icache.cpu_side::recvTimingReq: hasPC? 1, PC = 4805504, hasContextId? 1, contextID = 0, Vaddr: 4805504, Paddr: 611200
system.cpu.dcache.cpu_side::recvTimingReq: hasPC? 1, PC = 4805392, hasContextId? 1, contextID = 0, MemCmd: WriteReq, Size: 1, CmdDir: 1
system.cpu.dcache.cpu_side::recvTimingReq: hasPC? 1, PC = 4805402, hasContextId? 1, contextID = 0, MemCmd: WriteReq, Size: 8, CmdDir: 1
system.cpu.icache.cpu_side::recvTimingReq: hasPC? 1, PC = 4805565, hasContextId? 1, contextID = 0, Vaddr: 4805568, Paddr: 611264
system.cpu.dcache.cpu_side::recvTimingReq: hasPC? 1, PC = 4805504, hasContextId? 1, contextID = 0, MemCmd: ReadReq, Size: 8, CmdDir: 1
system.cpu.dcache.cpu_side::recvTimingReq: hasPC? 1, PC = 4805409, hasContextId? 1, contextID = 0, MemCmd: WriteReq, Size: 8, CmdDir: 1
system.cpu.dcache.cpu_side::recvTimingReq: hasPC? 1, PC = 4805416, hasContextId? 1, contextID = 0, MemCmd: WriteReq, Size: 8, CmdDir: 1
system.cpu.dcache.cpu_side::recvTimingReq: hasPC? 1, PC = 4805423, hasContextId? 1, contextID = 0, MemCmd: WriteReq, Size: 8, CmdDir: 1
system.cpu.dcache.cpu_side::recvTimingReq: hasPC? 1, PC = 4805430, hasContextId? 1, contextID = 0, MemCmd: WriteReq, Size: 8, CmdDir: 1
system.cpu.dcache.cpu_side::recvTimingReq: hasPC? 1, PC = 4805441, hasContextId? 1, contextID = 0, MemCmd: WriteReq, Size: 8, CmdDir: 1
system.cpu.dcache.cpu_side::recvTimingReq: hasPC? 1, PC = 4805576, hasContextId? 1, contextID = 0, MemCmd: ReadReq, Size: 8, CmdDir: 1
system.cpu.dcache.cpu_side::recvTimingReq: hasPC? 1, PC = 4805577, hasContextId? 1, contextID = 0, MemCmd: ReadReq, Size: 8, CmdDir: 1
system.cpu.dcache.cpu_side::recvTimingReq: hasPC? 1, PC = 4805578, hasContextId? 1, contextID = 0, MemCmd: ReadReq, Size: 8, CmdDir: 1
system.cpu.dcache.cpu_side::recvTimingReq: hasPC? 1, PC = 4805580, hasContextId? 1, contextID = 0, MemCmd: ReadReq, Size: 8, CmdDir: 1
system.cpu.dcache.cpu_side::recvTimingReq: hasPC? 1, PC = 4805452, hasContextId? 1, contextID = 0, MemCmd: WriteReq, Size: 8, CmdDir: 1
system.cpu.dcache.cpu_side::recvTimingReq: hasPC? 1, PC = 4805582, hasContextId? 1, contextID = 0, MemCmd: ReadReq, Size: 8, CmdDir: 1
system.cpu.dcache.cpu_side::recvTimingReq: hasPC? 1, PC = 4805584, hasContextId? 1, contextID = 0, MemCmd: ReadReq, Size: 8, CmdDir: 1
system.cpu.dcache.cpu_side::recvTimingReq: hasPC? 1, PC = 4805586, hasContextId? 1, contextID = 0, MemCmd: ReadReq, Size: 8, CmdDir: 1
system.cpu.icache.cpu_side::recvTimingReq: hasPC? 1, PC = 4803454, hasContextId? 1, contextID = 0, Vaddr: 4803392, Paddr: 609088
system.cpu.icache.cpu_side::recvTimingReq: hasPC? 1, PC = 4803454, hasContextId? 1, contextID = 0, Vaddr: 4803456, Paddr: 609152
system.cpu.icache.cpu_side::recvTimingReq: hasPC? 1, PC = 4803517, hasContextId? 1, contextID = 0, Vaddr: 4803520, Paddr: 609216
system.cpu.dcache.cpu_side::recvTimingReq: hasPC? 1, PC = 4803499, hasContextId? 1, contextID = 0, MemCmd: ReadReq, Size: 8, CmdDir: 1
system.cpu.dcache.cpu_side::recvTimingReq: hasPC? 1, PC = 4805463, hasContextId? 1, contextID = 0, MemCmd: WriteReq, Size: 8, CmdDir: 1
system.cpu.dcache.cpu_side::recvTimingReq: hasPC? 1, PC = 4805474, hasContextId? 1, contextID = 0, MemCmd: WriteReq, Size: 8, CmdDir: 1
system.cpu.icache.cpu_side::recvTimingReq: hasPC? 1, PC = 4803583, hasContextId? 1, contextID = 0, Vaddr: 4803584, Paddr: 609280
system.cpu.icache.cpu_side::recvTimingReq: hasPC? 1, PC = 4813184, hasContextId? 1, contextID = 0, Vaddr: 4813184, Paddr: 618880
system.cpu.dcache.cpu_side::recvTimingReq: hasPC? 1, PC = 4805511, hasContextId? 1, contextID = 0, MemCmd: WriteReq, Size: 8, CmdDir: 1
system.cpu.dcache.cpu_side::recvTimingReq: hasPC? 1, PC = 4805534, hasContextId? 1, contextID = 0, MemCmd: WriteReq, Size: 8, CmdDir: 1
system.cpu.icache.cpu_side::recvTimingReq: hasPC? 1, PC = 4813248, hasContextId? 1, contextID = 0, Vaddr: 4813248, Paddr: 618944
system.cpu.dcache.cpu_side::recvTimingReq: hasPC? 1, PC = 4813203, hasContextId? 1, contextID = 0, MemCmd: ReadReq, Size: 4, CmdDir: 1
system.cpu.icache.cpu_side::recvTimingReq: hasPC? 1, PC = 4813241, hasContextId? 1, contextID = 0, Vaddr: 4813184, Paddr: 618880
system.cpu.icache.cpu_side::recvTimingReq: hasPC? 1, PC = 4813248, hasContextId? 1, contextID = 0, Vaddr: 4813248, Paddr: 618944
system.cpu.dcache.cpu_side::recvTimingReq: hasPC? 1, PC = 4805549, hasContextId? 1, contextID = 0, MemCmd: WriteReq, Size: 8, CmdDir: 1
system.cpu.dcache.cpu_side::recvTimingReq: hasPC? 1, PC = 4805565, hasContextId? 1, contextID = 0, MemCmd: WriteReq, Size: 8, CmdDir: 1
system.cpu.dcache.cpu_side::recvTimingReq: hasPC? 1, PC = 4803454, hasContextId? 1, contextID = 0, MemCmd: WriteReq, Size: 8, CmdDir: 1
system.cpu.icache.cpu_side::recvTimingReq: hasPC? 1, PC = 4813312, hasContextId? 1, contextID = 0, Vaddr: 4813312, Paddr: 619008
system.cpu.icache.cpu_side::recvTimingReq: hasPC? 1, PC = 4813331, hasContextId? 1, contextID = 0, Vaddr: 4813312, Paddr: 619008
system.cpu.icache.cpu_side::recvTimingReq: hasPC? 1, PC = 4813228, hasContextId? 1, contextID = 0, Vaddr: 4813184, Paddr: 618880
system.cpu.icache.cpu_side::recvTimingReq: hasPC? 1, PC = 4813248, hasContextId? 1, contextID = 0, Vaddr: 4813248, Paddr: 618944
system.cpu.icache.cpu_side::recvTimingReq: hasPC? 1, PC = 4813331, hasContextId? 1, contextID = 0, Vaddr: 4813312, Paddr: 619008
system.cpu.dcache.cpu_side::recvTimingReq: hasPC? 1, PC = 4813228, hasContextId? 1, contextID = 0, MemCmd: ReadReq, Size: 4, CmdDir: 1
system.cpu.dcache.cpu_side::recvTimingReq: hasPC? 1, PC = 4813241, hasContextId? 1, contextID = 0, MemCmd: ReadReq, Size: 8, CmdDir: 1
system.cpu.dcache.cpu_side::recvTimingReq: hasPC? 1, PC = 4813264, hasContextId? 1, contextID = 0, MemCmd: ReadReq, Size: 8, CmdDir: 1
system.cpu.dcache.cpu_side::recvTimingReq: hasPC? 1, PC = 4803474, hasContextId? 1, contextID = 0, MemCmd: WriteReq, Size: 1, CmdDir: 1
system.cpu.dcache.cpu_side::recvTimingReq: hasPC? 1, PC = 4803482, hasContextId? 1, contextID = 0, MemCmd: WriteReq, Size: 1, CmdDir: 1
system.cpu.dcache.cpu_side::recvTimingReq: hasPC? 1, PC = 4803538, hasContextId? 1, contextID = 0, MemCmd: ReadReq, Size: 8, CmdDir: 1
system.cpu.icache.cpu_side::recvTimingReq: hasPC? 1, PC = 4803583, hasContextId? 1, contextID = 0, Vaddr: 4803520, Paddr: 609216
system.cpu.icache.cpu_side::recvTimingReq: hasPC? 1, PC = 4803583, hasContextId? 1, contextID = 0, Vaddr: 4803584, Paddr: 609280
system.cpu.dcache.cpu_side::recvTimingReq: hasPC? 1, PC = 4803549, hasContextId? 1, contextID = 0, MemCmd: WriteReq, Size: 8, CmdDir: 1
system.cpu.dcache.cpu_side::recvTimingReq: hasPC? 1, PC = 4803557, hasContextId? 1, contextID = 0, MemCmd: WriteReq, Size: 8, CmdDir: 1
system.cpu.icache.cpu_side::recvTimingReq: hasPC? 1, PC = 4803647, hasContextId? 1, contextID = 0, Vaddr: 4803648, Paddr: 609344
system.cpu.dcache.cpu_side::recvTimingReq: hasPC? 1, PC = 4803590, hasContextId? 1, contextID = 0, MemCmd: ReadReq, Size: 8, CmdDir: 1
system.cpu.dcache.cpu_side::recvTimingReq: hasPC? 1, PC = 4803595, hasContextId? 1, contextID = 0, MemCmd: ReadReq, Size: 4, CmdDir: 1
system.cpu.dcache.cpu_side::recvTimingReq: hasPC? 1, PC = 4803583, hasContextId? 1, contextID = 0, MemCmd: ReadReq, Size: 8, CmdDir: 1
system.cpu.icache.cpu_side::recvTimingReq: hasPC? 1, PC = 4930800, hasContextId? 1, contextID = 0, Vaddr: 4930752, Paddr: 736448
system.cpu.dcache.cpu_side::recvTimingReq: hasPC? 1, PC = 4803599, hasContextId? 1, contextID = 0, MemCmd: WriteReq, Size: 8, CmdDir: 1
system.cpu.icache.cpu_side::recvTimingReq: hasPC? 1, PC = 4930815, hasContextId? 1, contextID = 0, Vaddr: 4930816, Paddr: 736512
system.cpu.dcache.cpu_side::recvTimingReq: hasPC? 1, PC = 4930805, hasContextId? 1, contextID = 0, MemCmd: WriteReq, Size: 8, CmdDir: 1
system.cpu.dcache.cpu_side::recvTimingReq: hasPC? 1, PC = 4930810, hasContextId? 1, contextID = 0, MemCmd: WriteReq, Size: 8, CmdDir: 1
system.cpu.icache.cpu_side::recvTimingReq: hasPC? 1, PC = 4930875, hasContextId? 1, contextID = 0, Vaddr: 4930880, Paddr: 736576
system.cpu.dcache.cpu_side::recvTimingReq: hasPC? 1, PC = 4930847, hasContextId? 1, contextID = 0, MemCmd: ReadReq, Size: 2, CmdDir: 1
system.cpu.dcache.cpu_side::recvTimingReq: hasPC? 1, PC = 4930815, hasContextId? 1, contextID = 0, MemCmd: WriteReq, Size: 8, CmdDir: 1
system.cpu.icache.cpu_side::recvTimingReq: hasPC? 1, PC = 4930847, hasContextId? 1, contextID = 0, Vaddr: 4930816, Paddr: 736512
system.cpu.icache.cpu_side::recvTimingReq: hasPC? 1, PC = 4930875, hasContextId? 1, contextID = 0, Vaddr: 4930880, Paddr: 736576
[...]
system.cpu.icache.cpu_side::recvTimingReq: hasPC? 1, PC = 4889302, hasContextId? 1, contextID = 0, Vaddr: 4889280, Paddr: 694976
system.cpu.dcache.cpu_side::recvTimingReq: hasPC? 1, PC = 4234991, hasContextId? 1, contextID = 0, MemCmd: ReadReq, Size: 4, CmdDir: 1
system.cpu.dcache.cpu_side::recvTimingReq: hasPC? 1, PC = 4235002, hasContextId? 1, contextID = 0, MemCmd: ReadReq, Size: 4, CmdDir: 1
system.cpu.icache.cpu_side::recvTimingReq: hasPC? 1, PC = 4221002, hasContextId? 1, contextID = 0, Vaddr: 4220992, Paddr: 26688
system.cpu.dcache.cpu_side::recvTimingReq: hasPC? 1, PC = 4234973, hasContextId? 1, contextID = 0, MemCmd: WriteReq, Size: 8, CmdDir: 1
system.cpu.dcache.cpu_side::recvTimingReq: hasPC? 1, PC = 4234981, hasContextId? 1, contextID = 0, MemCmd: WriteReq, Size: 4, CmdDir: 1
system.cpu.icache.cpu_side::recvTimingReq: hasPC? 1, PC = 4912000, hasContextId? 1, contextID = 0, Vaddr: 4912000, Paddr: 717696
system.cpu.icache.cpu_side::recvTimingReq: hasPC? 1, PC = 4235043, hasContextId? 1, contextID = 0, Vaddr: 4235008, Paddr: 40704
system.cpu.icache.cpu_side::recvTimingReq: hasPC? 1, PC = 4889302, hasContextId? 1, contextID = 0, Vaddr: 4889280, Paddr: 694976
system.cpu.icache.cpu_side::recvTimingReq: hasPC? 1, PC = 4221002, hasContextId? 1, contextID = 0, Vaddr: 4220992, Paddr: 26688
system.cpu.icache.cpu_side::recvTimingReq: hasPC? 1, PC = 4221055, hasContextId? 1, contextID = 0, Vaddr: 4221056, Paddr: 26752
system.cpu.dcache.cpu_side::recvTimingReq: hasPC? 1, PC = 4235049, hasContextId? 1, contextID = 0, MemCmd: ReadReq, Size: 8, CmdDir: 1
system.cpu.dcache.cpu_side::recvTimingReq: hasPC? 1, PC = 4235051, hasContextId? 1, contextID = 0, MemCmd: ReadReq, Size: 8, CmdDir: 1
system.cpu.dcache.cpu_side::recvTimingReq: hasPC? 1, PC = 4235052, hasContextId? 1, contextID = 0, MemCmd: ReadReq, Size: 8, CmdDir: 1
system.cpu.dcache.cpu_side::recvTimingReq: hasPC? 1, PC = 4889314, hasContextId? 1, contextID = 0, MemCmd: ReadReq, Size: 8, CmdDir: 1
system.cpu.dcache.cpu_side::recvTimingReq: hasPC? 1, PC = 4889315, hasContextId? 1, contextID = 0, MemCmd: ReadReq, Size: 8, CmdDir: 1
system.cpu.dcache.cpu_side::recvTimingReq: hasPC? 1, PC = 4889316, hasContextId? 1, contextID = 0, MemCmd: ReadReq, Size: 8, CmdDir: 1
system.cpu.icache.cpu_side::recvTimingReq: hasPC? 1, PC = 4214448, hasContextId? 1, contextID = 0, Vaddr: 4214400, Paddr: 20096
system.cpu.icache.cpu_side::recvTimingReq: hasPC? 1, PC = 4214460, hasContextId? 1, contextID = 0, Vaddr: 4214464, Paddr: 20160
system.cpu.icache.cpu_side::recvTimingReq: hasPC? 1, PC = 4214526, hasContextId? 1, contextID = 0, Vaddr: 4214528, Paddr: 20224
system.cpu.icache.cpu_side::recvTimingReq: hasPC? 1, PC = 4214591, hasContextId? 1, contextID = 0, Vaddr: 4214592, Paddr: 20288
system.cpu.dcache.cpu_side::recvTimingReq: hasPC? 1, PC = 4214448, hasContextId? 1, contextID = 0, MemCmd: ReadReq, Size: 8, CmdDir: 1
system.cpu.dcache.cpu_side::recvTimingReq: hasPC? 1, PC = 4214474, hasContextId? 1, contextID = 0, MemCmd: ReadReq, Size: 8, CmdDir: 1
system.cpu.icache.cpu_side::recvTimingReq: hasPC? 1, PC = 4214501, hasContextId? 1, contextID = 0, Vaddr: 4214464, Paddr: 20160
system.cpu.icache.cpu_side::recvTimingReq: hasPC? 1, PC = 4214526, hasContextId? 1, contextID = 0, Vaddr: 4214528, Paddr: 20224
system.cpu.dcache.cpu_side::recvTimingReq: hasPC? 1, PC = 4214460, hasContextId? 1, contextID = 0, MemCmd: WriteReq, Size: 8, CmdDir: 1
system.cpu.dcache.cpu_side::recvTimingReq: hasPC? 1, PC = 4214467, hasContextId? 1, contextID = 0, MemCmd: WriteReq, Size: 4, CmdDir: 1
system.cpu.icache.cpu_side::recvTimingReq: hasPC? 1, PC = 4214591, hasContextId? 1, contextID = 0, Vaddr: 4214592, Paddr: 20288
system.cpu.dcache.cpu_side::recvTimingReq: hasPC? 1, PC = 4214481, hasContextId? 1, contextID = 0, MemCmd: WriteReq, Size: 8, CmdDir: 1
system.cpu.icache.cpu_side::recvTimingReq: hasPC? 1, PC = 4219376, hasContextId? 1, contextID = 0, Vaddr: 4219328, Paddr: 25024
system.cpu.dcache.cpu_side::recvTimingReq: hasPC? 1, PC = 4214506, hasContextId? 1, contextID = 0, MemCmd: WriteReq, Size: 8, CmdDir: 1
system.cpu.icache.cpu_side::recvTimingReq: hasPC? 1, PC = 4219392, hasContextId? 1, contextID = 0, Vaddr: 4219392, Paddr: 25088
system.cpu.dcache.cpu_side::recvTimingReq: hasPC? 1, PC = 4219376, hasContextId? 1, contextID = 0, MemCmd: WriteReq, Size: 8, CmdDir: 1
system.cpu.dcache.cpu_side::recvTimingReq: hasPC? 1, PC = 4219380, hasContextId? 1, contextID = 0, MemCmd: WriteReq, Size: 8, CmdDir: 1
system.cpu.dcache.cpu_side::recvTimingReq: hasPC? 1, PC = 4219382, hasContextId? 1, contextID = 0, MemCmd: WriteReq, Size: 8, CmdDir: 1
system.cpu.dcache.cpu_side::recvTimingReq: hasPC? 1, PC = 4219384, hasContextId? 1, contextID = 0, MemCmd: WriteReq, Size: 8, CmdDir: 1
system.cpu.icache.cpu_side::recvTimingReq: hasPC? 1, PC = 4219454, hasContextId? 1, contextID = 0, Vaddr: 4219456, Paddr: 25152
system.cpu.dcache.cpu_side::recvTimingReq: hasPC? 1, PC = 4219394, hasContextId? 1, contextID = 0, MemCmd: ReadReq, Size: 8, CmdDir: 1
system.cpu.icache.cpu_side::recvTimingReq: hasPC? 1, PC = 4810512, hasContextId? 1, contextID = 0, Vaddr: 4810496, Paddr: 616192
system.cpu.icache.cpu_side::recvTimingReq: hasPC? 1, PC = 4810554, hasContextId? 1, contextID = 0, Vaddr: 4810560, Paddr: 616256
system.cpu.dcache.cpu_side::recvTimingReq: hasPC? 1, PC = 4219406, hasContextId? 1, contextID = 0, MemCmd: WriteReq, Size: 8, CmdDir: 1
system.cpu.dcache.cpu_side::recvTimingReq: hasPC? 1, PC = 4219419, hasContextId? 1, contextID = 0, MemCmd: WriteReq, Size: 8, CmdDir: 1
system.cpu.icache.cpu_side::recvTimingReq: hasPC? 1, PC = 4221002, hasContextId? 1, contextID = 0, Vaddr: 4220992, Paddr: 26688
system.cpu.dcache.cpu_side::recvTimingReq: hasPC? 1, PC = 4810554, hasContextId? 1, contextID = 0, MemCmd: ReadReq, Size: 8, CmdDir: 1
system.cpu.dcache.cpu_side::recvTimingReq: hasPC? 1, PC = 4810571, hasContextId? 1, contextID = 0, MemCmd: ReadReq, Size: 8, CmdDir: 1
system.cpu.dcache.cpu_side::recvTimingReq: hasPC? 1, PC = 4810512, hasContextId? 1, contextID = 0, MemCmd: WriteReq, Size: 8, CmdDir: 1
system.cpu.icache.cpu_side::recvTimingReq: hasPC? 1, PC = 4888800, hasContextId? 1, contextID = 0, Vaddr: 4888768, Paddr: 694464
system.cpu.dcache.cpu_side::recvTimingReq: hasPC? 1, PC = 4810517, hasContextId? 1, contextID = 0, MemCmd: WriteReq, Size: 8, CmdDir: 1
system.cpu.dcache.cpu_side::recvTimingReq: hasPC? 1, PC = 4810522, hasContextId? 1, contextID = 0, MemCmd: WriteReq, Size: 8, CmdDir: 1
system.cpu.dcache.cpu_side::recvTimingReq: hasPC? 1, PC = 4810527, hasContextId? 1, contextID = 0, MemCmd: WriteReq, Size: 8, CmdDir: 1
system.cpu.dcache.cpu_side::recvTimingReq: hasPC? 1, PC = 4810535, hasContextId? 1, contextID = 0, MemCmd: WriteReq, Size: 8, CmdDir: 1
system.cpu.dcache.cpu_side::recvTimingReq: hasPC? 1, PC = 4810540, hasContextId? 1, contextID = 0, MemCmd: WriteReq, Size: 8, CmdDir: 1
system.cpu.dcache.cpu_side::recvTimingReq: hasPC? 1, PC = 4888816, hasContextId? 1, contextID = 0, MemCmd: ReadReq, Size: 1, CmdDir: 1
system.cpu.dcache.cpu_side::recvTimingReq: hasPC? 1, PC = 4810549, hasContextId? 1, contextID = 0, MemCmd: WriteReq, Size: 8, CmdDir: 1
system.cpu.icache.cpu_side::recvTimingReq: hasPC? 1, PC = 4888832, hasContextId? 1, contextID = 0, Vaddr: 4888832, Paddr: 694528
system.cpu.icache.cpu_side::recvTimingReq: hasPC? 1, PC = 4888895, hasContextId? 1, contextID = 0, Vaddr: 4888896, Paddr: 694592
system.cpu.icache.cpu_side::recvTimingReq: hasPC? 1, PC = 4888960, hasContextId? 1, contextID = 0, Vaddr: 4888960, Paddr: 694656
system.cpu.dcache.cpu_side::recvTimingReq: hasPC? 1, PC = 4888848, hasContextId? 1, contextID = 0, MemCmd: ReadReq, Size: 8, CmdDir: 1
system.cpu.icache.cpu_side::recvTimingReq: hasPC? 1, PC = 4889029, hasContextId? 1, contextID = 0, Vaddr: 4889024, Paddr: 694720
system.cpu.dcache.cpu_side::recvTimingReq: hasPC? 1, PC = 4888874, hasContextId? 1, contextID = 0, MemCmd: ReadReq, Size: 8, CmdDir: 1
system.cpu.icache.cpu_side::recvTimingReq: hasPC? 1, PC = 4221002, hasContextId? 1, contextID = 0, Vaddr: 4220992, Paddr: 26688
system.cpu.icache.cpu_side::recvTimingReq: hasPC? 1, PC = 4221055, hasContextId? 1, contextID = 0, Vaddr: 4221056, Paddr: 26752
system.cpu.dcache.cpu_side::recvTimingReq: hasPC? 1, PC = 4889032, hasContextId? 1, contextID = 0, MemCmd: ReadReq, Size: 8, CmdDir: 1
system.cpu.dcache.cpu_side::recvTimingReq: hasPC? 1, PC = 4221027, hasContextId? 1, contextID = 0, MemCmd: ReadReq, Size: 4, CmdDir: 1
system.cpu.icache.cpu_side::recvTimingReq: hasPC? 1, PC = 4810554, hasContextId? 1, contextID = 0, Vaddr: 4810496, Paddr: 616192
system.cpu.icache.cpu_side::recvTimingReq: hasPC? 1, PC = 4810554, hasContextId? 1, contextID = 0, Vaddr: 4810560, Paddr: 616256
system.cpu.icache.cpu_side::recvTimingReq: hasPC? 1, PC = 4810624, hasContextId? 1, contextID = 0, Vaddr: 4810624, Paddr: 616320
system.cpu.icache.cpu_side::recvTimingReq: hasPC? 1, PC = 4810569, hasContextId? 1, contextID = 0, Vaddr: 4810560, Paddr: 616256
system.cpu.icache.cpu_side::recvTimingReq: hasPC? 1, PC = 4221084, hasContextId? 1, contextID = 0, Vaddr: 4221056, Paddr: 26752
system.cpu.dcache.cpu_side::recvTimingReq: hasPC? 1, PC = 4810554, hasContextId? 1, contextID = 0, MemCmd: ReadReq, Size: 8, CmdDir: 1
system.cpu.dcache.cpu_side::recvTimingReq: hasPC? 1, PC = 4810608, hasContextId? 1, contextID = 0, MemCmd: ReadReq, Size: 1, CmdDir: 1
system.cpu.dcache.cpu_side::recvTimingReq: hasPC? 1, PC = 4810614, hasContextId? 1, contextID = 0, MemCmd: ReadReq, Size: 1, CmdDir: 1
system.cpu.dcache.cpu_side::recvTimingReq: hasPC? 1, PC = 4810624, hasContextId? 1, contextID = 0, MemCmd: ReadReq, Size: 2, CmdDir: 1
system.cpu.dcache.cpu_side::recvTimingReq: hasPC? 1, PC = 4810621, hasContextId? 1, contextID = 0, MemCmd: ReadReq, Size: 8, CmdDir: 1
system.cpu.dcache.cpu_side::recvTimingReq: hasPC? 1, PC = 4810571, hasContextId? 1, contextID = 0, MemCmd: ReadReq, Size: 8, CmdDir: 1
system.cpu.dcache.cpu_side::recvTimingReq: hasPC? 1, PC = 4810576, hasContextId? 1, contextID = 0, MemCmd: ReadReq, Size: 8, CmdDir: 1
system.cpu.dcache.cpu_side::recvTimingReq: hasPC? 1, PC = 4810581, hasContextId? 1, contextID = 0, MemCmd: ReadReq, Size: 8, CmdDir: 1
system.cpu.dcache.cpu_side::recvTimingReq: hasPC? 1, PC = 4810586, hasContextId? 1, contextID = 0, MemCmd: ReadReq, Size: 8, CmdDir: 1
system.cpu.dcache.cpu_side::recvTimingReq: hasPC? 1, PC = 4810591, hasContextId? 1, contextID = 0, MemCmd: ReadReq, Size: 8, CmdDir: 1
system.cpu.dcache.cpu_side::recvTimingReq: hasPC? 1, PC = 4810596, hasContextId? 1, contextID = 0, MemCmd: ReadReq, Size: 8, CmdDir: 1
system.cpu.dcache.cpu_side::recvTimingReq: hasPC? 1, PC = 4810605, hasContextId? 1, contextID = 0, MemCmd: ReadReq, Size: 8, CmdDir: 1
system.cpu.dcache.cpu_side::recvTimingReq: hasPC? 1, PC = 4221095, hasContextId? 1, contextID = 0, MemCmd: ReadReq, Size: 4, CmdDir: 1
system.cpu.dcache.cpu_side::recvTimingReq: hasPC? 1, PC = 4221105, hasContextId? 1, contextID = 0, MemCmd: ReadReq, Size: 8, CmdDir: 1
system.cpu.icache.cpu_side::recvTimingReq: hasPC? 1, PC = 4219424, hasContextId? 1, contextID = 0, Vaddr: 4219392, Paddr: 25088
system.cpu.icache.cpu_side::recvTimingReq: hasPC? 1, PC = 4219454, hasContextId? 1, contextID = 0, Vaddr: 4219456, Paddr: 25152
system.cpu.icache.cpu_side::recvTimingReq: hasPC? 1, PC = 4219519, hasContextId? 1, contextID = 0, Vaddr: 4219520, Paddr: 25216
system.cpu.icache.cpu_side::recvTimingReq: hasPC? 1, PC = 4888900, hasContextId? 1, contextID = 0, Vaddr: 4888896, Paddr: 694592
system.cpu.icache.cpu_side::recvTimingReq: hasPC? 1, PC = 4888960, hasContextId? 1, contextID = 0, Vaddr: 4888960, Paddr: 694656
system.cpu.dcache.cpu_side::recvTimingReq: hasPC? 1, PC = 4888900, hasContextId? 1, contextID = 0, MemCmd: ReadReq, Size: 8, CmdDir: 1
system.cpu.icache.cpu_side::recvTimingReq: hasPC? 1, PC = 4889024, hasContextId? 1, contextID = 0, Vaddr: 4889024, Paddr: 694720
system.cpu.dcache.cpu_side::recvTimingReq: hasPC? 1, PC = 4888926, hasContextId? 1, contextID = 0, MemCmd: ReadReq, Size: 8, CmdDir: 1
system.cpu.icache.cpu_side::recvTimingReq: hasPC? 1, PC = 4221002, hasContextId? 1, contextID = 0, Vaddr: 4220992, Paddr: 26688
system.cpu.icache.cpu_side::recvTimingReq: hasPC? 1, PC = 4888960, hasContextId? 1, contextID = 0, Vaddr: 4888960, Paddr: 694656
system.cpu.icache.cpu_side::recvTimingReq: hasPC? 1, PC = 4889029, hasContextId? 1, contextID = 0, Vaddr: 4889024, Paddr: 694720
system.cpu.icache.cpu_side::recvTimingReq: hasPC? 1, PC = 4221002, hasContextId? 1, contextID = 0, Vaddr: 4220992, Paddr: 26688
system.cpu.icache.cpu_side::recvTimingReq: hasPC? 1, PC = 4221055, hasContextId? 1, contextID = 0, Vaddr: 4221056, Paddr: 26752
system.cpu.dcache.cpu_side::recvTimingReq: hasPC? 1, PC = 4889032, hasContextId? 1, contextID = 0, MemCmd: ReadReq, Size: 8, CmdDir: 1
system.cpu.dcache.cpu_side::recvTimingReq: hasPC? 1, PC = 4221013, hasContextId? 1, contextID = 0, MemCmd: ReadReq, Size: 1, CmdDir: 1
system.cpu.dcache.cpu_side::recvTimingReq: hasPC? 1, PC = 4221051, hasContextId? 1, contextID = 0, MemCmd: ReadReq, Size: 8, CmdDir: 1
system.cpu.dcache.cpu_side::recvTimingReq: hasPC? 1, PC = 4221027, hasContextId? 1, contextID = 0, MemCmd: ReadReq, Size: 4, CmdDir: 1
system.cpu.dcache.cpu_side::recvTimingReq: hasPC? 1, PC = 4221036, hasContextId? 1, contextID = 0, MemCmd: ReadReq, Size: 8, CmdDir: 1
system.cpu.dcache.cpu_side::recvTimingReq: hasPC? 1, PC = 4221043, hasContextId? 1, contextID = 0, MemCmd: ReadReq, Size: 4, CmdDir: 1
system.cpu.icache.cpu_side::recvTimingReq: hasPC? 1, PC = 4810554, hasContextId? 1, contextID = 0, Vaddr: 4810496, Paddr: 616192
system.cpu.icache.cpu_side::recvTimingReq: hasPC? 1, PC = 4810554, hasContextId? 1, contextID = 0, Vaddr: 4810560, Paddr: 616256
system.cpu.icache.cpu_side::recvTimingReq: hasPC? 1, PC = 4810624, hasContextId? 1, contextID = 0, Vaddr: 4810624, Paddr: 616320
system.cpu.icache.cpu_side::recvTimingReq: hasPC? 1, PC = 4810569, hasContextId? 1, contextID = 0, Vaddr: 4810560, Paddr: 616256
system.cpu.icache.cpu_side::recvTimingReq: hasPC? 1, PC = 4221084, hasContextId? 1, contextID = 0, Vaddr: 4221056, Paddr: 26752
system.cpu.dcache.cpu_side::recvTimingReq: hasPC? 1, PC = 4810554, hasContextId? 1, contextID = 0, MemCmd: ReadReq, Size: 8, CmdDir: 1
system.cpu.dcache.cpu_side::recvTimingReq: hasPC? 1, PC = 4810608, hasContextId? 1, contextID = 0, MemCmd: ReadReq, Size: 1, CmdDir: 1
system.cpu.dcache.cpu_side::recvTimingReq: hasPC? 1, PC = 4810614, hasContextId? 1, contextID = 0, MemCmd: ReadReq, Size: 1, CmdDir: 1
system.cpu.dcache.cpu_side::recvTimingReq: hasPC? 1, PC = 4810624, hasContextId? 1, contextID = 0, MemCmd: ReadReq, Size: 2, CmdDir: 1
system.cpu.dcache.cpu_side::recvTimingReq: hasPC? 1, PC = 4810621, hasContextId? 1, contextID = 0, MemCmd: ReadReq, Size: 8, CmdDir: 1
system.cpu.dcache.cpu_side::recvTimingReq: hasPC? 1, PC = 4810571, hasContextId? 1, contextID = 0, MemCmd: ReadReq, Size: 8, CmdDir: 1
system.cpu.dcache.cpu_side::recvTimingReq: hasPC? 1, PC = 4810576, hasContextId? 1, contextID = 0, MemCmd: ReadReq, Size: 8, CmdDir: 1
system.cpu.dcache.cpu_side::recvTimingReq: hasPC? 1, PC = 4810581, hasContextId? 1, contextID = 0, MemCmd: ReadReq, Size: 8, CmdDir: 1
system.cpu.dcache.cpu_side::recvTimingReq: hasPC? 1, PC = 4810586, hasContextId? 1, contextID = 0, MemCmd: ReadReq, Size: 8, CmdDir: 1
system.cpu.dcache.cpu_side::recvTimingReq: hasPC? 1, PC = 4810591, hasContextId? 1, contextID = 0, MemCmd: ReadReq, Size: 8, CmdDir: 1
system.cpu.dcache.cpu_side::recvTimingReq: hasPC? 1, PC = 4810596, hasContextId? 1, contextID = 0, MemCmd: ReadReq, Size: 8, CmdDir: 1
system.cpu.dcache.cpu_side::recvTimingReq: hasPC? 1, PC = 4810605, hasContextId? 1, contextID = 0, MemCmd: ReadReq, Size: 8, CmdDir: 1
system.cpu.dcache.cpu_side::recvTimingReq: hasPC? 1, PC = 4221095, hasContextId? 1, contextID = 0, MemCmd: ReadReq, Size: 4, CmdDir: 1
system.cpu.dcache.cpu_side::recvTimingReq: hasPC? 1, PC = 4221105, hasContextId? 1, contextID = 0, MemCmd: ReadReq, Size: 8, CmdDir: 1
system.cpu.dcache.cpu_side::recvTimingReq: hasPC? 1, PC = 4221107, hasContextId? 1, contextID = 0, MemCmd: ReadReq, Size: 8, CmdDir: 1
system.cpu.icache.cpu_side::recvTimingReq: hasPC? 1, PC = 4219424, hasContextId? 1, contextID = 0, Vaddr: 4219392, Paddr: 25088
system.cpu.icache.cpu_side::recvTimingReq: hasPC? 1, PC = 4219454, hasContextId? 1, contextID = 0, Vaddr: 4219456, Paddr: 25152
system.cpu.icache.cpu_side::recvTimingReq: hasPC? 1, PC = 4219519, hasContextId? 1, contextID = 0, Vaddr: 4219520, Paddr: 25216
system.cpu.icache.cpu_side::recvTimingReq: hasPC? 1, PC = 4219694, hasContextId? 1, contextID = 0, Vaddr: 4219648, Paddr: 25344
system.cpu.icache.cpu_side::recvTimingReq: hasPC? 1, PC = 4219710, hasContextId? 1, contextID = 0, Vaddr: 4219712, Paddr: 25408
system.cpu.dcache.cpu_side::recvTimingReq: hasPC? 1, PC = 4219703, hasContextId? 1, contextID = 0, MemCmd: ReadReq, Size: 8, CmdDir: 1
system.cpu.icache.cpu_side::recvTimingReq: hasPC? 1, PC = 4219610, hasContextId? 1, contextID = 0, Vaddr: 4219584, Paddr: 25280
system.cpu.dcache.cpu_side::recvTimingReq: hasPC? 1, PC = 4219694, hasContextId? 1, contextID = 0, MemCmd: WriteReq, Size: 1, CmdDir: 1
system.cpu.icache.cpu_side::recvTimingReq: hasPC? 1, PC = 4221084, hasContextId? 1, contextID = 0, Vaddr: 4221056, Paddr: 26752
system.cpu.dcache.cpu_side::recvTimingReq: hasPC? 1, PC = 4219610, hasContextId? 1, contextID = 0, MemCmd: ReadReq, Size: 8, CmdDir: 1
system.cpu.dcache.cpu_side::recvTimingReq: hasPC? 1, PC = 4219617, hasContextId? 1, contextID = 0, MemCmd: ReadReq, Size: 8, CmdDir: 1
system.cpu.dcache.cpu_side::recvTimingReq: hasPC? 1, PC = 4219634, hasContextId? 1, contextID = 0, MemCmd: ReadReq, Size: 8, CmdDir: 1
system.cpu.dcache.cpu_side::recvTimingReq: hasPC? 1, PC = 4219635, hasContextId? 1, contextID = 0, MemCmd: ReadReq, Size: 8, CmdDir: 1
system.cpu.dcache.cpu_side::recvTimingReq: hasPC? 1, PC = 4219637, hasContextId? 1, contextID = 0, MemCmd: ReadReq, Size: 8, CmdDir: 1
system.cpu.dcache.cpu_side::recvTimingReq: hasPC? 1, PC = 4219639, hasContextId? 1, contextID = 0, MemCmd: ReadReq, Size: 8, CmdDir: 1
system.cpu.dcache.cpu_side::recvTimingReq: hasPC? 1, PC = 4219640, hasContextId? 1, contextID = 0, MemCmd: ReadReq, Size: 8, CmdDir: 1
system.cpu.dcache.cpu_side::recvTimingReq: hasPC? 1, PC = 4221095, hasContextId? 1, contextID = 0, MemCmd: ReadReq, Size: 4, CmdDir: 1
system.cpu.icache.cpu_side::recvTimingReq: hasPC? 1, PC = 4221120, hasContextId? 1, contextID = 0, Vaddr: 4221120, Paddr: 26816
system.cpu.icache.cpu_side::recvTimingReq: hasPC? 1, PC = 4214511, hasContextId? 1, contextID = 0, Vaddr: 4214464, Paddr: 20160
system.cpu.icache.cpu_side::recvTimingReq: hasPC? 1, PC = 4214526, hasContextId? 1, contextID = 0, Vaddr: 4214528, Paddr: 20224
system.cpu.icache.cpu_side::recvTimingReq: hasPC? 1, PC = 4214591, hasContextId? 1, contextID = 0, Vaddr: 4214592, Paddr: 20288
system.cpu.icache.cpu_side::recvTimingReq: hasPC? 1, PC = 4214653, hasContextId? 1, contextID = 0, Vaddr: 4214656, Paddr: 20352
system.cpu.icache.cpu_side::recvTimingReq: hasPC? 1, PC = 4809744, hasContextId? 1, contextID = 0, Vaddr: 4809728, Paddr: 615424
system.cpu.dcache.cpu_side::recvTimingReq: hasPC? 1, PC = 4214526, hasContextId? 1, contextID = 0, MemCmd: WriteReq, Size: 4, CmdDir: 1
system.cpu.dcache.cpu_side::recvTimingReq: hasPC? 1, PC = 4214536, hasContextId? 1, contextID = 0, MemCmd: WriteReq, Size: 8, CmdDir: 1
system.cpu.dcache.cpu_side::recvTimingReq: hasPC? 1, PC = 4214547, hasContextId? 1, contextID = 0, MemCmd: WriteReq, Size: 8, CmdDir: 1
system.cpu.dcache.cpu_side::recvTimingReq: hasPC? 1, PC = 4214558, hasContextId? 1, contextID = 0, MemCmd: WriteReq, Size: 8, CmdDir: 1
system.cpu.icache.cpu_side::recvTimingReq: hasPC? 1, PC = 4221084, hasContextId? 1, contextID = 0, Vaddr: 4221056, Paddr: 26752
