gem5 Simulator System.  http://gem5.org
gem5 is copyrighted software; use the --copyright option for details.

gem5 compiled Apr 11 2017 09:14:21
gem5 started Apr 11 2017 09:54:58
gem5 executing on shai.cse.psu.edu, pid 15867
command line: /home/mdl/mjl5868/GEM5/Mem2D/New_Version/2dmem_v0_1_addaddrbit/V0_1_AddAddrBit/gem5/build/X86/gem5.fast --redirect-stdout --stdout-file=vec_test_Apr11_2017.gemout --redirect-stderr --stderr-file=vec_test_Apr11_2017.gemerr --stats-file=vec_test_Apr11_2017.stats /home/mdl/mjl5868/GEM5/Mem2D/New_Version/2dmem_v0_1_addaddrbit/V0_1_AddAddrBit/gem5/configs/example/se.py --output=vec_test_Apr11_2017.appout --errout=vec_test_Apr11_2017.apperr -c /home/mdl/mjl5868/GEM5/Mem2D/New_Version/2dmem_v0_1_addaddrbit/V0_1_AddAddrBit/Run_test_pbs/Vector_test/vecoptest_sgemm-bin --caches --l2cache --cpu-type=detailed

Global frequency set at 1000000000000 ticks per second
**** REAL SIMULATION ****
info: Entering event queue @ 0.  Starting simulation...
system.cpu.icache.cpu_side::recvTimingReq: hasPC? 1, PC = 4194752, hasContextId? 1, contextID = 0, Vaddr: 4194752, Paddr: 448
system.cpu.icache.cpu_side::recvTimingReq: hasPC? 1, PC = 4194752, hasContextId? 1, contextID = 0, Vaddr: 4194752, Paddr: 448
system.cpu.dcache.cpu_side::recvTimingReq: hasPC? 1, PC = 4194757, hasContextId? 1, contextID = 0, MemCmd: ReadReq, Size: 8, CmdDir: 1
system.cpu.icache.cpu_side::recvTimingReq: hasPC? 1, PC = 4803616, hasContextId? 1, contextID = 0, Vaddr: 4803584, Paddr: 609280
system.cpu.dcache.cpu_side::recvTimingReq: hasPC? 1, PC = 4194765, hasContextId? 1, contextID = 0, MemCmd: WriteReq, Size: 8, CmdDir: 1
system.cpu.dcache.cpu_side::recvTimingReq: hasPC? 1, PC = 4194766, hasContextId? 1, contextID = 0, MemCmd: WriteReq, Size: 8, CmdDir: 1
system.cpu.dcache.cpu_side::recvTimingReq: hasPC? 1, PC = 4194788, hasContextId? 1, contextID = 0, MemCmd: WriteReq, Size: 8, CmdDir: 1
system.cpu.icache.cpu_side::recvTimingReq: hasPC? 1, PC = 4803647, hasContextId? 1, contextID = 0, Vaddr: 4803648, Paddr: 609344
system.cpu.dcache.cpu_side::recvTimingReq: hasPC? 1, PC = 4803616, hasContextId? 1, contextID = 0, MemCmd: WriteReq, Size: 8, CmdDir: 1
system.cpu.dcache.cpu_side::recvTimingReq: hasPC? 1, PC = 4803623, hasContextId? 1, contextID = 0, MemCmd: WriteReq, Size: 8, CmdDir: 1
system.cpu.dcache.cpu_side::recvTimingReq: hasPC? 1, PC = 4803625, hasContextId? 1, contextID = 0, MemCmd: WriteReq, Size: 8, CmdDir: 1
system.cpu.dcache.cpu_side::recvTimingReq: hasPC? 1, PC = 4803627, hasContextId? 1, contextID = 0, MemCmd: WriteReq, Size: 8, CmdDir: 1
system.cpu.dcache.cpu_side::recvTimingReq: hasPC? 1, PC = 4803632, hasContextId? 1, contextID = 0, MemCmd: WriteReq, Size: 8, CmdDir: 1
system.cpu.dcache.cpu_side::recvTimingReq: hasPC? 1, PC = 4803636, hasContextId? 1, contextID = 0, MemCmd: WriteReq, Size: 8, CmdDir: 1
system.cpu.icache.cpu_side::recvTimingReq: hasPC? 1, PC = 4803707, hasContextId? 1, contextID = 0, Vaddr: 4803712, Paddr: 609408
system.cpu.dcache.cpu_side::recvTimingReq: hasPC? 1, PC = 4803699, hasContextId? 1, contextID = 0, MemCmd: ReadReq, Size: 8, CmdDir: 1
system.cpu.icache.cpu_side::recvTimingReq: hasPC? 1, PC = 4803678, hasContextId? 1, contextID = 0, Vaddr: 4803648, Paddr: 609344
system.cpu.icache.cpu_side::recvTimingReq: hasPC? 1, PC = 4803707, hasContextId? 1, contextID = 0, Vaddr: 4803712, Paddr: 609408
system.cpu.dcache.cpu_side::recvTimingReq: hasPC? 1, PC = 4803650, hasContextId? 1, contextID = 0, MemCmd: WriteReq, Size: 8, CmdDir: 1
system.cpu.dcache.cpu_side::recvTimingReq: hasPC? 1, PC = 4803699, hasContextId? 1, contextID = 0, MemCmd: ReadReq, Size: 8, CmdDir: 1
system.cpu.icache.cpu_side::recvTimingReq: hasPC? 1, PC = 4803774, hasContextId? 1, contextID = 0, Vaddr: 4803776, Paddr: 609472
system.cpu.dcache.cpu_side::recvTimingReq: hasPC? 1, PC = 4803728, hasContextId? 1, contextID = 0, MemCmd: ReadReq, Size: 8, CmdDir: 1
system.cpu.icache.cpu_side::recvTimingReq: hasPC? 1, PC = 4928720, hasContextId? 1, contextID = 0, Vaddr: 4928704, Paddr: 734400
system.cpu.dcache.cpu_side::recvTimingReq: hasPC? 1, PC = 4803655, hasContextId? 1, contextID = 0, MemCmd: WriteReq, Size: 4, CmdDir: 1
system.cpu.dcache.cpu_side::recvTimingReq: hasPC? 1, PC = 4803659, hasContextId? 1, contextID = 0, MemCmd: WriteReq, Size: 8, CmdDir: 1
system.cpu.dcache.cpu_side::recvTimingReq: hasPC? 1, PC = 4803678, hasContextId? 1, contextID = 0, MemCmd: WriteReq, Size: 4, CmdDir: 1
system.cpu.icache.cpu_side::recvTimingReq: hasPC? 1, PC = 4928768, hasContextId? 1, contextID = 0, Vaddr: 4928768, Paddr: 734464
system.cpu.dcache.cpu_side::recvTimingReq: hasPC? 1, PC = 4928722, hasContextId? 1, contextID = 0, MemCmd: ReadReq, Size: 8, CmdDir: 1
system.cpu.dcache.cpu_side::recvTimingReq: hasPC? 1, PC = 4928738, hasContextId? 1, contextID = 0, MemCmd: ReadReq, Size: 8, CmdDir: 1
system.cpu.dcache.cpu_side::recvTimingReq: hasPC? 1, PC = 4928745, hasContextId? 1, contextID = 0, MemCmd: ReadReq, Size: 4, CmdDir: 1
system.cpu.dcache.cpu_side::recvTimingReq: hasPC? 1, PC = 4928754, hasContextId? 1, contextID = 0, MemCmd: ReadReq, Size: 8, CmdDir: 1
system.cpu.dcache.cpu_side::recvTimingReq: hasPC? 1, PC = 4928761, hasContextId? 1, contextID = 0, MemCmd: ReadReq, Size: 8, CmdDir: 1
system.cpu.dcache.cpu_side::recvTimingReq: hasPC? 1, PC = 4928761, hasContextId? 1, contextID = 0, MemCmd: ReadReq, Size: 8, CmdDir: 1
system.cpu.dcache.cpu_side::recvTimingReq: hasPC? 1, PC = 4803707, hasContextId? 1, contextID = 0, MemCmd: WriteReq, Size: 8, CmdDir: 1
system.cpu.icache.cpu_side::recvTimingReq: hasPC? 1, PC = 4928832, hasContextId? 1, contextID = 0, Vaddr: 4928832, Paddr: 734528
system.cpu.dcache.cpu_side::recvTimingReq: hasPC? 1, PC = 4928770, hasContextId? 1, contextID = 0, MemCmd: ReadReq, Size: 8, CmdDir: 1
system.cpu.dcache.cpu_side::recvTimingReq: hasPC? 1, PC = 4928777, hasContextId? 1, contextID = 0, MemCmd: ReadReq, Size: 8, CmdDir: 1
system.cpu.dcache.cpu_side::recvTimingReq: hasPC? 1, PC = 4928786, hasContextId? 1, contextID = 0, MemCmd: ReadReq, Size: 4, CmdDir: 1
system.cpu.dcache.cpu_side::recvTimingReq: hasPC? 1, PC = 4928793, hasContextId? 1, contextID = 0, MemCmd: ReadReq, Size: 4, CmdDir: 1
system.cpu.dcache.cpu_side::recvTimingReq: hasPC? 1, PC = 4928824, hasContextId? 1, contextID = 0, MemCmd: ReadReq, Size: 8, CmdDir: 1
system.cpu.dcache.cpu_side::recvTimingReq: hasPC? 1, PC = 4928810, hasContextId? 1, contextID = 0, MemCmd: ReadReq, Size: 8, CmdDir: 1
system.cpu.dcache.cpu_side::recvTimingReq: hasPC? 1, PC = 4928770, hasContextId? 1, contextID = 0, MemCmd: ReadReq, Size: 8, CmdDir: 1
system.cpu.dcache.cpu_side::recvTimingReq: hasPC? 1, PC = 4928777, hasContextId? 1, contextID = 0, MemCmd: ReadReq, Size: 8, CmdDir: 1
system.cpu.dcache.cpu_side::recvTimingReq: hasPC? 1, PC = 4928786, hasContextId? 1, contextID = 0, MemCmd: ReadReq, Size: 4, CmdDir: 1
system.cpu.dcache.cpu_side::recvTimingReq: hasPC? 1, PC = 4928793, hasContextId? 1, contextID = 0, MemCmd: ReadReq, Size: 4, CmdDir: 1
system.cpu.dcache.cpu_side::recvTimingReq: hasPC? 1, PC = 4928810, hasContextId? 1, contextID = 0, MemCmd: ReadReq, Size: 8, CmdDir: 1
system.cpu.dcache.cpu_side::recvTimingReq: hasPC? 1, PC = 4928824, hasContextId? 1, contextID = 0, MemCmd: ReadReq, Size: 8, CmdDir: 1
system.cpu.dcache.cpu_side::recvTimingReq: hasPC? 1, PC = 4928777, hasContextId? 1, contextID = 0, MemCmd: ReadReq, Size: 8, CmdDir: 1
system.cpu.dcache.cpu_side::recvTimingReq: hasPC? 1, PC = 4928786, hasContextId? 1, contextID = 0, MemCmd: ReadReq, Size: 4, CmdDir: 1
system.cpu.dcache.cpu_side::recvTimingReq: hasPC? 1, PC = 4928793, hasContextId? 1, contextID = 0, MemCmd: ReadReq, Size: 4, CmdDir: 1
system.cpu.dcache.cpu_side::recvTimingReq: hasPC? 1, PC = 4928810, hasContextId? 1, contextID = 0, MemCmd: ReadReq, Size: 8, CmdDir: 1
system.cpu.dcache.cpu_side::recvTimingReq: hasPC? 1, PC = 4928824, hasContextId? 1, contextID = 0, MemCmd: ReadReq, Size: 8, CmdDir: 1
system.cpu.dcache.cpu_side::recvTimingReq: hasPC? 1, PC = 4928793, hasContextId? 1, contextID = 0, MemCmd: ReadReq, Size: 4, CmdDir: 1
system.cpu.dcache.cpu_side::recvTimingReq: hasPC? 1, PC = 4928810, hasContextId? 1, contextID = 0, MemCmd: ReadReq, Size: 8, CmdDir: 1
system.cpu.dcache.cpu_side::recvTimingReq: hasPC? 1, PC = 4928824, hasContextId? 1, contextID = 0, MemCmd: ReadReq, Size: 8, CmdDir: 1
system.cpu.dcache.cpu_side::recvTimingReq: hasPC? 1, PC = 4928810, hasContextId? 1, contextID = 0, MemCmd: ReadReq, Size: 8, CmdDir: 1
system.cpu.dcache.cpu_side::recvTimingReq: hasPC? 1, PC = 4928824, hasContextId? 1, contextID = 0, MemCmd: ReadReq, Size: 8, CmdDir: 1
system.cpu.dcache.cpu_side::recvTimingReq: hasPC? 1, PC = 4803714, hasContextId? 1, contextID = 0, MemCmd: WriteReq, Size: 8, CmdDir: 1
system.cpu.icache.cpu_side::recvTimingReq: hasPC? 1, PC = 4928893, hasContextId? 1, contextID = 0, Vaddr: 4928896, Paddr: 734592
system.cpu.dcache.cpu_side::recvTimingReq: hasPC? 1, PC = 4928836, hasContextId? 1, contextID = 0, MemCmd: ReadReq, Size: 8, CmdDir: 1
system.cpu.dcache.cpu_side::recvTimingReq: hasPC? 1, PC = 4803714, hasContextId? 1, contextID = 0, MemCmd: WriteReq, Size: 8, CmdDir: 1
system.cpu.dcache.cpu_side::recvTimingReq: hasPC? 1, PC = 4928824, hasContextId? 1, contextID = 0, MemCmd: ReadReq, Size: 8, CmdDir: 1
system.cpu.dcache.cpu_side::recvTimingReq: hasPC? 1, PC = 4928836, hasContextId? 1, contextID = 0, MemCmd: ReadReq, Size: 8, CmdDir: 1
system.cpu.dcache.cpu_side::recvTimingReq: hasPC? 1, PC = 4803740, hasContextId? 1, contextID = 0, MemCmd: WriteReq, Size: 8, CmdDir: 1
system.cpu.dcache.cpu_side::recvTimingReq: hasPC? 1, PC = 4928720, hasContextId? 1, contextID = 0, MemCmd: WriteReq, Size: 8, CmdDir: 1
system.cpu.dcache.cpu_side::recvTimingReq: hasPC? 1, PC = 4928725, hasContextId? 1, contextID = 0, MemCmd: WriteReq, Size: 8, CmdDir: 1
system.cpu.icache.cpu_side::recvTimingReq: hasPC? 1, PC = 4928952, hasContextId? 1, contextID = 0, Vaddr: 4928896, Paddr: 734592
system.cpu.icache.cpu_side::recvTimingReq: hasPC? 1, PC = 4928960, hasContextId? 1, contextID = 0, Vaddr: 4928960, Paddr: 734656
system.cpu.dcache.cpu_side::recvTimingReq: hasPC? 1, PC = 4928952, hasContextId? 1, contextID = 0, MemCmd: ReadReq, Size: 8, CmdDir: 1
system.cpu.dcache.cpu_side::recvTimingReq: hasPC? 1, PC = 4928730, hasContextId? 1, contextID = 0, MemCmd: WriteReq, Size: 8, CmdDir: 1
system.cpu.dcache.cpu_side::recvTimingReq: hasPC? 1, PC = 4928731, hasContextId? 1, contextID = 0, MemCmd: WriteReq, Size: 8, CmdDir: 1
system.cpu.icache.cpu_side::recvTimingReq: hasPC? 1, PC = 4929024, hasContextId? 1, contextID = 0, Vaddr: 4929024, Paddr: 734720
system.cpu.dcache.cpu_side::recvTimingReq: hasPC? 1, PC = 4928960, hasContextId? 1, contextID = 0, MemCmd: ReadReq, Size: 8, CmdDir: 1
system.cpu.dcache.cpu_side::recvTimingReq: hasPC? 1, PC = 4928976, hasContextId? 1, contextID = 0, MemCmd: ReadReq, Size: 4, CmdDir: 1
system.cpu.icache.cpu_side::recvTimingReq: hasPC? 1, PC = 4928848, hasContextId? 1, contextID = 0, Vaddr: 4928832, Paddr: 734528
system.cpu.icache.cpu_side::recvTimingReq: hasPC? 1, PC = 4928800, hasContextId? 1, contextID = 0, Vaddr: 4928768, Paddr: 734464
system.cpu.icache.cpu_side::recvTimingReq: hasPC? 1, PC = 4928832, hasContextId? 1, contextID = 0, Vaddr: 4928832, Paddr: 734528
system.cpu.icache.cpu_side::recvTimingReq: hasPC? 1, PC = 4928893, hasContextId? 1, contextID = 0, Vaddr: 4928896, Paddr: 734592
system.cpu.dcache.cpu_side::recvTimingReq: hasPC? 1, PC = 4928810, hasContextId? 1, contextID = 0, MemCmd: ReadReq, Size: 8, CmdDir: 1
system.cpu.dcache.cpu_side::recvTimingReq: hasPC? 1, PC = 4928824, hasContextId? 1, contextID = 0, MemCmd: ReadReq, Size: 8, CmdDir: 1
system.cpu.dcache.cpu_side::recvTimingReq: hasPC? 1, PC = 4928836, hasContextId? 1, contextID = 0, MemCmd: ReadReq, Size: 8, CmdDir: 1
system.cpu.dcache.cpu_side::recvTimingReq: hasPC? 1, PC = 4928940, hasContextId? 1, contextID = 0, MemCmd: ReadReq, Size: 8, CmdDir: 1
system.cpu.icache.cpu_side::recvTimingReq: hasPC? 1, PC = 4928800, hasContextId? 1, contextID = 0, Vaddr: 4928768, Paddr: 734464
system.cpu.icache.cpu_side::recvTimingReq: hasPC? 1, PC = 4928832, hasContextId? 1, contextID = 0, Vaddr: 4928832, Paddr: 734528
system.cpu.icache.cpu_side::recvTimingReq: hasPC? 1, PC = 4928893, hasContextId? 1, contextID = 0, Vaddr: 4928896, Paddr: 734592
system.cpu.dcache.cpu_side::recvTimingReq: hasPC? 1, PC = 4928810, hasContextId? 1, contextID = 0, MemCmd: ReadReq, Size: 8, CmdDir: 1
system.cpu.dcache.cpu_side::recvTimingReq: hasPC? 1, PC = 4928824, hasContextId? 1, contextID = 0, MemCmd: ReadReq, Size: 8, CmdDir: 1
system.cpu.dcache.cpu_side::recvTimingReq: hasPC? 1, PC = 4928836, hasContextId? 1, contextID = 0, MemCmd: ReadReq, Size: 8, CmdDir: 1
system.cpu.dcache.cpu_side::recvTimingReq: hasPC? 1, PC = 4928940, hasContextId? 1, contextID = 0, MemCmd: ReadReq, Size: 8, CmdDir: 1
system.cpu.icache.cpu_side::recvTimingReq: hasPC? 1, PC = 4928800, hasContextId? 1, contextID = 0, Vaddr: 4928768, Paddr: 734464
system.cpu.icache.cpu_side::recvTimingReq: hasPC? 1, PC = 4928832, hasContextId? 1, contextID = 0, Vaddr: 4928832, Paddr: 734528
system.cpu.icache.cpu_side::recvTimingReq: hasPC? 1, PC = 4928893, hasContextId? 1, contextID = 0, Vaddr: 4928896, Paddr: 734592
system.cpu.dcache.cpu_side::recvTimingReq: hasPC? 1, PC = 4928810, hasContextId? 1, contextID = 0, MemCmd: ReadReq, Size: 8, CmdDir: 1
system.cpu.dcache.cpu_side::recvTimingReq: hasPC? 1, PC = 4928824, hasContextId? 1, contextID = 0, MemCmd: ReadReq, Size: 8, CmdDir: 1
system.cpu.dcache.cpu_side::recvTimingReq: hasPC? 1, PC = 4928836, hasContextId? 1, contextID = 0, MemCmd: ReadReq, Size: 8, CmdDir: 1
system.cpu.icache.cpu_side::recvTimingReq: hasPC? 1, PC = 4928800, hasContextId? 1, contextID = 0, Vaddr: 4928768, Paddr: 734464
system.cpu.icache.cpu_side::recvTimingReq: hasPC? 1, PC = 4928832, hasContextId? 1, contextID = 0, Vaddr: 4928832, Paddr: 734528
system.cpu.icache.cpu_side::recvTimingReq: hasPC? 1, PC = 4928893, hasContextId? 1, contextID = 0, Vaddr: 4928896, Paddr: 734592
system.cpu.icache.cpu_side::recvTimingReq: hasPC? 1, PC = 4929048, hasContextId? 1, contextID = 0, Vaddr: 4929024, Paddr: 734720
system.cpu.icache.cpu_side::recvTimingReq: hasPC? 1, PC = 4929087, hasContextId? 1, contextID = 0, Vaddr: 4929088, Paddr: 734784
system.cpu.dcache.cpu_side::recvTimingReq: hasPC? 1, PC = 4929048, hasContextId? 1, contextID = 0, MemCmd: ReadReq, Size: 8, CmdDir: 1
system.cpu.dcache.cpu_side::recvTimingReq: hasPC? 1, PC = 4929056, hasContextId? 1, contextID = 0, MemCmd: ReadReq, Size: 8, CmdDir: 1
system.cpu.dcache.cpu_side::recvTimingReq: hasPC? 1, PC = 4929080, hasContextId? 1, contextID = 0, MemCmd: ReadReq, Size: 4, CmdDir: 1
system.cpu.icache.cpu_side::recvTimingReq: hasPC? 1, PC = 4928848, hasContextId? 1, contextID = 0, Vaddr: 4928832, Paddr: 734528
system.cpu.icache.cpu_side::recvTimingReq: hasPC? 1, PC = 4928800, hasContextId? 1, contextID = 0, Vaddr: 4928768, Paddr: 734464
system.cpu.icache.cpu_side::recvTimingReq: hasPC? 1, PC = 4928832, hasContextId? 1, contextID = 0, Vaddr: 4928832, Paddr: 734528
system.cpu.icache.cpu_side::recvTimingReq: hasPC? 1, PC = 4928893, hasContextId? 1, contextID = 0, Vaddr: 4928896, Paddr: 734592
system.cpu.dcache.cpu_side::recvTimingReq: hasPC? 1, PC = 4928824, hasContextId? 1, contextID = 0, MemCmd: ReadReq, Size: 8, CmdDir: 1
system.cpu.dcache.cpu_side::recvTimingReq: hasPC? 1, PC = 4928810, hasContextId? 1, contextID = 0, MemCmd: ReadReq, Size: 8, CmdDir: 1
system.cpu.dcache.cpu_side::recvTimingReq: hasPC? 1, PC = 4928836, hasContextId? 1, contextID = 0, MemCmd: ReadReq, Size: 8, CmdDir: 1
system.cpu.icache.cpu_side::recvTimingReq: hasPC? 1, PC = 4928824, hasContextId? 1, contextID = 0, Vaddr: 4928768, Paddr: 734464
system.cpu.icache.cpu_side::recvTimingReq: hasPC? 1, PC = 4928832, hasContextId? 1, contextID = 0, Vaddr: 4928832, Paddr: 734528
system.cpu.icache.cpu_side::recvTimingReq: hasPC? 1, PC = 4928893, hasContextId? 1, contextID = 0, Vaddr: 4928896, Paddr: 734592
system.cpu.dcache.cpu_side::recvTimingReq: hasPC? 1, PC = 4928824, hasContextId? 1, contextID = 0, MemCmd: ReadReq, Size: 8, CmdDir: 1
system.cpu.dcache.cpu_side::recvTimingReq: hasPC? 1, PC = 4928836, hasContextId? 1, contextID = 0, MemCmd: ReadReq, Size: 8, CmdDir: 1
system.cpu.dcache.cpu_side::recvTimingReq: hasPC? 1, PC = 4928940, hasContextId? 1, contextID = 0, MemCmd: ReadReq, Size: 8, CmdDir: 1
system.cpu.icache.cpu_side::recvTimingReq: hasPC? 1, PC = 4928800, hasContextId? 1, contextID = 0, Vaddr: 4928768, Paddr: 734464
system.cpu.icache.cpu_side::recvTimingReq: hasPC? 1, PC = 4928832, hasContextId? 1, contextID = 0, Vaddr: 4928832, Paddr: 734528
system.cpu.icache.cpu_side::recvTimingReq: hasPC? 1, PC = 4928893, hasContextId? 1, contextID = 0, Vaddr: 4928896, Paddr: 734592
system.cpu.dcache.cpu_side::recvTimingReq: hasPC? 1, PC = 4928810, hasContextId? 1, contextID = 0, MemCmd: ReadReq, Size: 8, CmdDir: 1
system.cpu.dcache.cpu_side::recvTimingReq: hasPC? 1, PC = 4928824, hasContextId? 1, contextID = 0, MemCmd: ReadReq, Size: 8, CmdDir: 1
system.cpu.dcache.cpu_side::recvTimingReq: hasPC? 1, PC = 4928836, hasContextId? 1, contextID = 0, MemCmd: ReadReq, Size: 8, CmdDir: 1
system.cpu.icache.cpu_side::recvTimingReq: hasPC? 1, PC = 4929016, hasContextId? 1, contextID = 0, Vaddr: 4928960, Paddr: 734656
system.cpu.icache.cpu_side::recvTimingReq: hasPC? 1, PC = 4929024, hasContextId? 1, contextID = 0, Vaddr: 4929024, Paddr: 734720
system.cpu.icache.cpu_side::recvTimingReq: hasPC? 1, PC = 4929087, hasContextId? 1, contextID = 0, Vaddr: 4929088, Paddr: 734784
system.cpu.dcache.cpu_side::recvTimingReq: hasPC? 1, PC = 4929016, hasContextId? 1, contextID = 0, MemCmd: ReadReq, Size: 4, CmdDir: 1
system.cpu.dcache.cpu_side::recvTimingReq: hasPC? 1, PC = 4929024, hasContextId? 1, contextID = 0, MemCmd: ReadReq, Size: 8, CmdDir: 1
system.cpu.dcache.cpu_side::recvTimingReq: hasPC? 1, PC = 4929048, hasContextId? 1, contextID = 0, MemCmd: ReadReq, Size: 8, CmdDir: 1
system.cpu.icache.cpu_side::recvTimingReq: hasPC? 1, PC = 4928848, hasContextId? 1, contextID = 0, Vaddr: 4928832, Paddr: 734528
system.cpu.icache.cpu_side::recvTimingReq: hasPC? 1, PC = 4928800, hasContextId? 1, contextID = 0, Vaddr: 4928768, Paddr: 734464
system.cpu.icache.cpu_side::recvTimingReq: hasPC? 1, PC = 4928832, hasContextId? 1, contextID = 0, Vaddr: 4928832, Paddr: 734528
system.cpu.icache.cpu_side::recvTimingReq: hasPC? 1, PC = 4928893, hasContextId? 1, contextID = 0, Vaddr: 4928896, Paddr: 734592
system.cpu.dcache.cpu_side::recvTimingReq: hasPC? 1, PC = 4928810, hasContextId? 1, contextID = 0, MemCmd: ReadReq, Size: 8, CmdDir: 1
system.cpu.dcache.cpu_side::recvTimingReq: hasPC? 1, PC = 4928824, hasContextId? 1, contextID = 0, MemCmd: ReadReq, Size: 8, CmdDir: 1
system.cpu.dcache.cpu_side::recvTimingReq: hasPC? 1, PC = 4928836, hasContextId? 1, contextID = 0, MemCmd: ReadReq, Size: 8, CmdDir: 1
system.cpu.icache.cpu_side::recvTimingReq: hasPC? 1, PC = 4929240, hasContextId? 1, contextID = 0, Vaddr: 4929216, Paddr: 734912
system.cpu.icache.cpu_side::recvTimingReq: hasPC? 1, PC = 4929280, hasContextId? 1, contextID = 0, Vaddr: 4929280, Paddr: 734976
system.cpu.dcache.cpu_side::recvTimingReq: hasPC? 1, PC = 4929240, hasContextId? 1, contextID = 0, MemCmd: ReadReq, Size: 8, CmdDir: 1
system.cpu.dcache.cpu_side::recvTimingReq: hasPC? 1, PC = 4929248, hasContextId? 1, contextID = 0, MemCmd: ReadReq, Size: 8, CmdDir: 1
system.cpu.icache.cpu_side::recvTimingReq: hasPC? 1, PC = 4928848, hasContextId? 1, contextID = 0, Vaddr: 4928832, Paddr: 734528
system.cpu.icache.cpu_side::recvTimingReq: hasPC? 1, PC = 4928800, hasContextId? 1, contextID = 0, Vaddr: 4928768, Paddr: 734464
system.cpu.icache.cpu_side::recvTimingReq: hasPC? 1, PC = 4928832, hasContextId? 1, contextID = 0, Vaddr: 4928832, Paddr: 734528
system.cpu.icache.cpu_side::recvTimingReq: hasPC? 1, PC = 4928893, hasContextId? 1, contextID = 0, Vaddr: 4928896, Paddr: 734592
system.cpu.dcache.cpu_side::recvTimingReq: hasPC? 1, PC = 4928824, hasContextId? 1, contextID = 0, MemCmd: ReadReq, Size: 8, CmdDir: 1
system.cpu.dcache.cpu_side::recvTimingReq: hasPC? 1, PC = 4928810, hasContextId? 1, contextID = 0, MemCmd: ReadReq, Size: 8, CmdDir: 1
system.cpu.dcache.cpu_side::recvTimingReq: hasPC? 1, PC = 4928836, hasContextId? 1, contextID = 0, MemCmd: ReadReq, Size: 8, CmdDir: 1
system.cpu.icache.cpu_side::recvTimingReq: hasPC? 1, PC = 4928832, hasContextId? 1, contextID = 0, Vaddr: 4928832, Paddr: 734528
system.cpu.icache.cpu_side::recvTimingReq: hasPC? 1, PC = 4928893, hasContextId? 1, contextID = 0, Vaddr: 4928896, Paddr: 734592
system.cpu.dcache.cpu_side::recvTimingReq: hasPC? 1, PC = 4928836, hasContextId? 1, contextID = 0, MemCmd: ReadReq, Size: 8, CmdDir: 1
system.cpu.dcache.cpu_side::recvTimingReq: hasPC? 1, PC = 4928940, hasContextId? 1, contextID = 0, MemCmd: ReadReq, Size: 8, CmdDir: 1
system.cpu.icache.cpu_side::recvTimingReq: hasPC? 1, PC = 4928800, hasContextId? 1, contextID = 0, Vaddr: 4928768, Paddr: 734464
system.cpu.icache.cpu_side::recvTimingReq: hasPC? 1, PC = 4928832, hasContextId? 1, contextID = 0, Vaddr: 4928832, Paddr: 734528
system.cpu.icache.cpu_side::recvTimingReq: hasPC? 1, PC = 4928893, hasContextId? 1, contextID = 0, Vaddr: 4928896, Paddr: 734592
system.cpu.dcache.cpu_side::recvTimingReq: hasPC? 1, PC = 4928810, hasContextId? 1, contextID = 0, MemCmd: ReadReq, Size: 8, CmdDir: 1
system.cpu.dcache.cpu_side::recvTimingReq: hasPC? 1, PC = 4928824, hasContextId? 1, contextID = 0, MemCmd: ReadReq, Size: 8, CmdDir: 1
system.cpu.dcache.cpu_side::recvTimingReq: hasPC? 1, PC = 4928836, hasContextId? 1, contextID = 0, MemCmd: ReadReq, Size: 8, CmdDir: 1
system.cpu.icache.cpu_side::recvTimingReq: hasPC? 1, PC = 4929208, hasContextId? 1, contextID = 0, Vaddr: 4929152, Paddr: 734848
system.cpu.icache.cpu_side::recvTimingReq: hasPC? 1, PC = 4929216, hasContextId? 1, contextID = 0, Vaddr: 4929216, Paddr: 734912
system.cpu.icache.cpu_side::recvTimingReq: hasPC? 1, PC = 4929280, hasContextId? 1, contextID = 0, Vaddr: 4929280, Paddr: 734976
system.cpu.dcache.cpu_side::recvTimingReq: hasPC? 1, PC = 4929208, hasContextId? 1, contextID = 0, MemCmd: ReadReq, Size: 8, CmdDir: 1
system.cpu.dcache.cpu_side::recvTimingReq: hasPC? 1, PC = 4929216, hasContextId? 1, contextID = 0, MemCmd: ReadReq, Size: 8, CmdDir: 1
system.cpu.dcache.cpu_side::recvTimingReq: hasPC? 1, PC = 4929240, hasContextId? 1, contextID = 0, MemCmd: ReadReq, Size: 8, CmdDir: 1
system.cpu.icache.cpu_side::recvTimingReq: hasPC? 1, PC = 4928848, hasContextId? 1, contextID = 0, Vaddr: 4928832, Paddr: 734528
system.cpu.icache.cpu_side::recvTimingReq: hasPC? 1, PC = 4928800, hasContextId? 1, contextID = 0, Vaddr: 4928768, Paddr: 734464
system.cpu.icache.cpu_side::recvTimingReq: hasPC? 1, PC = 4928832, hasContextId? 1, contextID = 0, Vaddr: 4928832, Paddr: 734528
system.cpu.icache.cpu_side::recvTimingReq: hasPC? 1, PC = 4928893, hasContextId? 1, contextID = 0, Vaddr: 4928896, Paddr: 734592
system.cpu.dcache.cpu_side::recvTimingReq: hasPC? 1, PC = 4928810, hasContextId? 1, contextID = 0, MemCmd: ReadReq, Size: 8, CmdDir: 1
system.cpu.dcache.cpu_side::recvTimingReq: hasPC? 1, PC = 4928824, hasContextId? 1, contextID = 0, MemCmd: ReadReq, Size: 8, CmdDir: 1
system.cpu.dcache.cpu_side::recvTimingReq: hasPC? 1, PC = 4928836, hasContextId? 1, contextID = 0, MemCmd: ReadReq, Size: 8, CmdDir: 1
system.cpu.dcache.cpu_side::recvTimingReq: hasPC? 1, PC = 4928940, hasContextId? 1, contextID = 0, MemCmd: ReadReq, Size: 8, CmdDir: 1
system.cpu.icache.cpu_side::recvTimingReq: hasPC? 1, PC = 4928800, hasContextId? 1, contextID = 0, Vaddr: 4928768, Paddr: 734464
system.cpu.icache.cpu_side::recvTimingReq: hasPC? 1, PC = 4928832, hasContextId? 1, contextID = 0, Vaddr: 4928832, Paddr: 734528
system.cpu.icache.cpu_side::recvTimingReq: hasPC? 1, PC = 4928893, hasContextId? 1, contextID = 0, Vaddr: 4928896, Paddr: 734592
system.cpu.dcache.cpu_side::recvTimingReq: hasPC? 1, PC = 4928810, hasContextId? 1, contextID = 0, MemCmd: ReadReq, Size: 8, CmdDir: 1
system.cpu.dcache.cpu_side::recvTimingReq: hasPC? 1, PC = 4928824, hasContextId? 1, contextID = 0, MemCmd: ReadReq, Size: 8, CmdDir: 1
system.cpu.dcache.cpu_side::recvTimingReq: hasPC? 1, PC = 4928836, hasContextId? 1, contextID = 0, MemCmd: ReadReq, Size: 8, CmdDir: 1
system.cpu.dcache.cpu_side::recvTimingReq: hasPC? 1, PC = 4928940, hasContextId? 1, contextID = 0, MemCmd: ReadReq, Size: 8, CmdDir: 1
system.cpu.dcache.cpu_side::recvTimingReq: hasPC? 1, PC = 4928941, hasContextId? 1, contextID = 0, MemCmd: ReadReq, Size: 8, CmdDir: 1
system.cpu.dcache.cpu_side::recvTimingReq: hasPC? 1, PC = 4928942, hasContextId? 1, contextID = 0, MemCmd: ReadReq, Size: 8, CmdDir: 1
system.cpu.dcache.cpu_side::recvTimingReq: hasPC? 1, PC = 4928944, hasContextId? 1, contextID = 0, MemCmd: ReadReq, Size: 8, CmdDir: 1
system.cpu.dcache.cpu_side::recvTimingReq: hasPC? 1, PC = 4928946, hasContextId? 1, contextID = 0, MemCmd: ReadReq, Size: 8, CmdDir: 1
system.cpu.icache.cpu_side::recvTimingReq: hasPC? 1, PC = 4803745, hasContextId? 1, contextID = 0, Vaddr: 4803712, Paddr: 609408
system.cpu.icache.cpu_side::recvTimingReq: hasPC? 1, PC = 4803774, hasContextId? 1, contextID = 0, Vaddr: 4803776, Paddr: 609472
system.cpu.dcache.cpu_side::recvTimingReq: hasPC? 1, PC = 4803745, hasContextId? 1, contextID = 0, MemCmd: ReadReq, Size: 4, CmdDir: 1
system.cpu.icache.cpu_side::recvTimingReq: hasPC? 1, PC = 4803840, hasContextId? 1, contextID = 0, Vaddr: 4803840, Paddr: 609536
system.cpu.dcache.cpu_side::recvTimingReq: hasPC? 1, PC = 4803787, hasContextId? 1, contextID = 0, MemCmd: ReadReq, Size: 1, CmdDir: 1
system.cpu.icache.cpu_side::recvTimingReq: hasPC? 1, PC = 4912192, hasContextId? 1, contextID = 0, Vaddr: 4912192, Paddr: 717888
system.cpu.icache.cpu_side::recvTimingReq: hasPC? 1, PC = 4928832, hasContextId? 1, contextID = 0, Vaddr: 4928832, Paddr: 734528
system.cpu.icache.cpu_side::recvTimingReq: hasPC? 1, PC = 4928893, hasContextId? 1, contextID = 0, Vaddr: 4928896, Paddr: 734592
system.cpu.dcache.cpu_side::recvTimingReq: hasPC? 1, PC = 4928836, hasContextId? 1, contextID = 0, MemCmd: ReadReq, Size: 8, CmdDir: 1
system.cpu.dcache.cpu_side::recvTimingReq: hasPC? 1, PC = 4928940, hasContextId? 1, contextID = 0, MemCmd: ReadReq, Size: 8, CmdDir: 1
system.cpu.dcache.cpu_side::recvTimingReq: hasPC? 1, PC = 4928941, hasContextId? 1, contextID = 0, MemCmd: ReadReq, Size: 8, CmdDir: 1
system.cpu.dcache.cpu_side::recvTimingReq: hasPC? 1, PC = 4928942, hasContextId? 1, contextID = 0, MemCmd: ReadReq, Size: 8, CmdDir: 1
system.cpu.icache.cpu_side::recvTimingReq: hasPC? 1, PC = 4928800, hasContextId? 1, contextID = 0, Vaddr: 4928768, Paddr: 734464
system.cpu.icache.cpu_side::recvTimingReq: hasPC? 1, PC = 4928832, hasContextId? 1, contextID = 0, Vaddr: 4928832, Paddr: 734528
system.cpu.icache.cpu_side::recvTimingReq: hasPC? 1, PC = 4928893, hasContextId? 1, contextID = 0, Vaddr: 4928896, Paddr: 734592
system.cpu.dcache.cpu_side::recvTimingReq: hasPC? 1, PC = 4928810, hasContextId? 1, contextID = 0, MemCmd: ReadReq, Size: 8, CmdDir: 1
system.cpu.dcache.cpu_side::recvTimingReq: hasPC? 1, PC = 4928824, hasContextId? 1, contextID = 0, MemCmd: ReadReq, Size: 8, CmdDir: 1
system.cpu.dcache.cpu_side::recvTimingReq: hasPC? 1, PC = 4928836, hasContextId? 1, contextID = 0, MemCmd: ReadReq, Size: 8, CmdDir: 1
system.cpu.icache.cpu_side::recvTimingReq: hasPC? 1, PC = 4928832, hasContextId? 1, contextID = 0, Vaddr: 4928832, Paddr: 734528
system.cpu.icache.cpu_side::recvTimingReq: hasPC? 1, PC = 4928893, hasContextId? 1, contextID = 0, Vaddr: 4928896, Paddr: 734592
system.cpu.dcache.cpu_side::recvTimingReq: hasPC? 1, PC = 4928836, hasContextId? 1, contextID = 0, MemCmd: ReadReq, Size: 8, CmdDir: 1
system.cpu.dcache.cpu_side::recvTimingReq: hasPC? 1, PC = 4928940, hasContextId? 1, contextID = 0, MemCmd: ReadReq, Size: 8, CmdDir: 1
system.cpu.dcache.cpu_side::recvTimingReq: hasPC? 1, PC = 4928940, hasContextId? 1, contextID = 0, MemCmd: ReadReq, Size: 8, CmdDir: 1
system.cpu.dcache.cpu_side::recvTimingReq: hasPC? 1, PC = 4928941, hasContextId? 1, contextID = 0, MemCmd: ReadReq, Size: 8, CmdDir: 1
system.cpu.dcache.cpu_side::recvTimingReq: hasPC? 1, PC = 4928942, hasContextId? 1, contextID = 0, MemCmd: ReadReq, Size: 8, CmdDir: 1
system.cpu.dcache.cpu_side::recvTimingReq: hasPC? 1, PC = 4928944, hasContextId? 1, contextID = 0, MemCmd: ReadReq, Size: 8, CmdDir: 1
system.cpu.dcache.cpu_side::recvTimingReq: hasPC? 1, PC = 4928946, hasContextId? 1, contextID = 0, MemCmd: ReadReq, Size: 8, CmdDir: 1
system.cpu.icache.cpu_side::recvTimingReq: hasPC? 1, PC = 4803745, hasContextId? 1, contextID = 0, Vaddr: 4803712, Paddr: 609408
system.cpu.icache.cpu_side::recvTimingReq: hasPC? 1, PC = 4803774, hasContextId? 1, contextID = 0, Vaddr: 4803776, Paddr: 609472
system.cpu.dcache.cpu_side::recvTimingReq: hasPC? 1, PC = 4803745, hasContextId? 1, contextID = 0, MemCmd: ReadReq, Size: 4, CmdDir: 1
system.cpu.icache.cpu_side::recvTimingReq: hasPC? 1, PC = 4928800, hasContextId? 1, contextID = 0, Vaddr: 4928768, Paddr: 734464
system.cpu.icache.cpu_side::recvTimingReq: hasPC? 1, PC = 4928832, hasContextId? 1, contextID = 0, Vaddr: 4928832, Paddr: 734528
system.cpu.icache.cpu_side::recvTimingReq: hasPC? 1, PC = 4928893, hasContextId? 1, contextID = 0, Vaddr: 4928896, Paddr: 734592
system.cpu.dcache.cpu_side::recvTimingReq: hasPC? 1, PC = 4928810, hasContextId? 1, contextID = 0, MemCmd: ReadReq, Size: 8, CmdDir: 1
system.cpu.dcache.cpu_side::recvTimingReq: hasPC? 1, PC = 4928824, hasContextId? 1, contextID = 0, MemCmd: ReadReq, Size: 8, CmdDir: 1
system.cpu.dcache.cpu_side::recvTimingReq: hasPC? 1, PC = 4928836, hasContextId? 1, contextID = 0, MemCmd: ReadReq, Size: 8, CmdDir: 1
system.cpu.dcache.cpu_side::recvTimingReq: hasPC? 1, PC = 4928940, hasContextId? 1, contextID = 0, MemCmd: ReadReq, Size: 8, CmdDir: 1
system.cpu.icache.cpu_side::recvTimingReq: hasPC? 1, PC = 4928832, hasContextId? 1, contextID = 0, Vaddr: 4928832, Paddr: 734528
system.cpu.icache.cpu_side::recvTimingReq: hasPC? 1, PC = 4928893, hasContextId? 1, contextID = 0, Vaddr: 4928896, Paddr: 734592
system.cpu.dcache.cpu_side::recvTimingReq: hasPC? 1, PC = 4928836, hasContextId? 1, contextID = 0, MemCmd: ReadReq, Size: 8, CmdDir: 1
system.cpu.dcache.cpu_side::recvTimingReq: hasPC? 1, PC = 4928940, hasContextId? 1, contextID = 0, MemCmd: ReadReq, Size: 8, CmdDir: 1
system.cpu.icache.cpu_side::recvTimingReq: hasPC? 1, PC = 4928800, hasContextId? 1, contextID = 0, Vaddr: 4928768, Paddr: 734464
system.cpu.icache.cpu_side::recvTimingReq: hasPC? 1, PC = 4928832, hasContextId? 1, contextID = 0, Vaddr: 4928832, Paddr: 734528
system.cpu.icache.cpu_side::recvTimingReq: hasPC? 1, PC = 4928893, hasContextId? 1, contextID = 0, Vaddr: 4928896, Paddr: 734592
system.cpu.dcache.cpu_side::recvTimingReq: hasPC? 1, PC = 4928810, hasContextId? 1, contextID = 0, MemCmd: ReadReq, Size: 8, CmdDir: 1
system.cpu.dcache.cpu_side::recvTimingReq: hasPC? 1, PC = 4928824, hasContextId? 1, contextID = 0, MemCmd: ReadReq, Size: 8, CmdDir: 1
system.cpu.dcache.cpu_side::recvTimingReq: hasPC? 1, PC = 4928836, hasContextId? 1, contextID = 0, MemCmd: ReadReq, Size: 8, CmdDir: 1
system.cpu.icache.cpu_side::recvTimingReq: hasPC? 1, PC = 4929176, hasContextId? 1, contextID = 0, Vaddr: 4929152, Paddr: 734848
system.cpu.icache.cpu_side::recvTimingReq: hasPC? 1, PC = 4929216, hasContextId? 1, contextID = 0, Vaddr: 4929216, Paddr: 734912
system.cpu.icache.cpu_side::recvTimingReq: hasPC? 1, PC = 4929280, hasContextId? 1, contextID = 0, Vaddr: 4929280, Paddr: 734976
system.cpu.dcache.cpu_side::recvTimingReq: hasPC? 1, PC = 4929176, hasContextId? 1, contextID = 0, MemCmd: ReadReq, Size: 4, CmdDir: 1
system.cpu.dcache.cpu_side::recvTimingReq: hasPC? 1, PC = 4929186, hasContextId? 1, contextID = 0, MemCmd: ReadReq, Size: 8, CmdDir: 1
system.cpu.dcache.cpu_side::recvTimingReq: hasPC? 1, PC = 4929208, hasContextId? 1, contextID = 0, MemCmd: ReadReq, Size: 8, CmdDir: 1
system.cpu.icache.cpu_side::recvTimingReq: hasPC? 1, PC = 4928848, hasContextId? 1, contextID = 0, Vaddr: 4928832, Paddr: 734528
system.cpu.icache.cpu_side::recvTimingReq: hasPC? 1, PC = 4928800, hasContextId? 1, contextID = 0, Vaddr: 4928768, Paddr: 734464
system.cpu.icache.cpu_side::recvTimingReq: hasPC? 1, PC = 4928832, hasContextId? 1, contextID = 0, Vaddr: 4928832, Paddr: 734528
system.cpu.icache.cpu_side::recvTimingReq: hasPC? 1, PC = 4928893, hasContextId? 1, contextID = 0, Vaddr: 4928896, Paddr: 734592
system.cpu.dcache.cpu_side::recvTimingReq: hasPC? 1, PC = 4928810, hasContextId? 1, contextID = 0, MemCmd: ReadReq, Size: 8, CmdDir: 1
system.cpu.dcache.cpu_side::recvTimingReq: hasPC? 1, PC = 4928824, hasContextId? 1, contextID = 0, MemCmd: ReadReq, Size: 8, CmdDir: 1
system.cpu.dcache.cpu_side::recvTimingReq: hasPC? 1, PC = 4928836, hasContextId? 1, contextID = 0, MemCmd: ReadReq, Size: 8, CmdDir: 1
system.cpu.icache.cpu_side::recvTimingReq: hasPC? 1, PC = 4929144, hasContextId? 1, contextID = 0, Vaddr: 4929088, Paddr: 734784
system.cpu.icache.cpu_side::recvTimingReq: hasPC? 1, PC = 4929151, hasContextId? 1, contextID = 0, Vaddr: 4929152, Paddr: 734848
system.cpu.icache.cpu_side::recvTimingReq: hasPC? 1, PC = 4929216, hasContextId? 1, contextID = 0, Vaddr: 4929216, Paddr: 734912
system.cpu.icache.cpu_side::recvTimingReq: hasPC? 1, PC = 4929280, hasContextId? 1, contextID = 0, Vaddr: 4929280, Paddr: 734976
system.cpu.dcache.cpu_side::recvTimingReq: hasPC? 1, PC = 4929144, hasContextId? 1, contextID = 0, MemCmd: ReadReq, Size: 4, CmdDir: 1
system.cpu.dcache.cpu_side::recvTimingReq: hasPC? 1, PC = 4929154, hasContextId? 1, contextID = 0, MemCmd: ReadReq, Size: 8, CmdDir: 1
system.cpu.dcache.cpu_side::recvTimingReq: hasPC? 1, PC = 4929176, hasContextId? 1, contextID = 0, MemCmd: ReadReq, Size: 4, CmdDir: 1
system.cpu.dcache.cpu_side::recvTimingReq: hasPC? 1, PC = 4929186, hasContextId? 1, contextID = 0, MemCmd: ReadReq, Size: 8, CmdDir: 1
system.cpu.dcache.cpu_side::recvTimingReq: hasPC? 1, PC = 4929208, hasContextId? 1, contextID = 0, MemCmd: ReadReq, Size: 8, CmdDir: 1
system.cpu.icache.cpu_side::recvTimingReq: hasPC? 1, PC = 4928848, hasContextId? 1, contextID = 0, Vaddr: 4928832, Paddr: 734528
system.cpu.icache.cpu_side::recvTimingReq: hasPC? 1, PC = 4928800, hasContextId? 1, contextID = 0, Vaddr: 4928768, Paddr: 734464
system.cpu.icache.cpu_side::recvTimingReq: hasPC? 1, PC = 4928832, hasContextId? 1, contextID = 0, Vaddr: 4928832, Paddr: 734528
system.cpu.icache.cpu_side::recvTimingReq: hasPC? 1, PC = 4928893, hasContextId? 1, contextID = 0, Vaddr: 4928896, Paddr: 734592
system.cpu.dcache.cpu_side::recvTimingReq: hasPC? 1, PC = 4928810, hasContextId? 1, contextID = 0, MemCmd: ReadReq, Size: 8, CmdDir: 1
system.cpu.dcache.cpu_side::recvTimingReq: hasPC? 1, PC = 4928824, hasContextId? 1, contextID = 0, MemCmd: ReadReq, Size: 8, CmdDir: 1
system.cpu.dcache.cpu_side::recvTimingReq: hasPC? 1, PC = 4928836, hasContextId? 1, contextID = 0, MemCmd: ReadReq, Size: 8, CmdDir: 1
system.cpu.icache.cpu_side::recvTimingReq: hasPC? 1, PC = 4929112, hasContextId? 1, contextID = 0, Vaddr: 4929088, Paddr: 734784
system.cpu.icache.cpu_side::recvTimingReq: hasPC? 1, PC = 4929151, hasContextId? 1, contextID = 0, Vaddr: 4929152, Paddr: 734848
system.cpu.icache.cpu_side::recvTimingReq: hasPC? 1, PC = 4929216, hasContextId? 1, contextID = 0, Vaddr: 4929216, Paddr: 734912
system.cpu.dcache.cpu_side::recvTimingReq: hasPC? 1, PC = 4929112, hasContextId? 1, contextID = 0, MemCmd: ReadReq, Size: 4, CmdDir: 1
system.cpu.icache.cpu_side::recvTimingReq: hasPC? 1, PC = 4929280, hasContextId? 1, contextID = 0, Vaddr: 4929280, Paddr: 734976
system.cpu.dcache.cpu_side::recvTimingReq: hasPC? 1, PC = 4929122, hasContextId? 1, contextID = 0, MemCmd: ReadReq, Size: 8, CmdDir: 1
system.cpu.dcache.cpu_side::recvTimingReq: hasPC? 1, PC = 4929144, hasContextId? 1, contextID = 0, MemCmd: ReadReq, Size: 4, CmdDir: 1
system.cpu.icache.cpu_side::recvTimingReq: hasPC? 1, PC = 4928848, hasContextId? 1, contextID = 0, Vaddr: 4928832, Paddr: 734528
system.cpu.icache.cpu_side::recvTimingReq: hasPC? 1, PC = 4928893, hasContextId? 1, contextID = 0, Vaddr: 4928896, Paddr: 734592
system.cpu.dcache.cpu_side::recvTimingReq: hasPC? 1, PC = 4928940, hasContextId? 1, contextID = 0, MemCmd: ReadReq, Size: 8, CmdDir: 1
system.cpu.dcache.cpu_side::recvTimingReq: hasPC? 1, PC = 4928940, hasContextId? 1, contextID = 0, MemCmd: ReadReq, Size: 8, CmdDir: 1
system.cpu.dcache.cpu_side::recvTimingReq: hasPC? 1, PC = 4928941, hasContextId? 1, contextID = 0, MemCmd: ReadReq, Size: 8, CmdDir: 1
system.cpu.dcache.cpu_side::recvTimingReq: hasPC? 1, PC = 4928942, hasContextId? 1, contextID = 0, MemCmd: ReadReq, Size: 8, CmdDir: 1
system.cpu.dcache.cpu_side::recvTimingReq: hasPC? 1, PC = 4928944, hasContextId? 1, contextID = 0, MemCmd: ReadReq, Size: 8, CmdDir: 1
system.cpu.dcache.cpu_side::recvTimingReq: hasPC? 1, PC = 4928946, hasContextId? 1, contextID = 0, MemCmd: ReadReq, Size: 8, CmdDir: 1
system.cpu.icache.cpu_side::recvTimingReq: hasPC? 1, PC = 4803745, hasContextId? 1, contextID = 0, Vaddr: 4803712, Paddr: 609408
system.cpu.icache.cpu_side::recvTimingReq: hasPC? 1, PC = 4803774, hasContextId? 1, contextID = 0, Vaddr: 4803776, Paddr: 609472
system.cpu.dcache.cpu_side::recvTimingReq: hasPC? 1, PC = 4803745, hasContextId? 1, contextID = 0, MemCmd: ReadReq, Size: 4, CmdDir: 1
system.cpu.icache.cpu_side::recvTimingReq: hasPC? 1, PC = 4803840, hasContextId? 1, contextID = 0, Vaddr: 4803840, Paddr: 609536
system.cpu.dcache.cpu_side::recvTimingReq: hasPC? 1, PC = 4803787, hasContextId? 1, contextID = 0, MemCmd: ReadReq, Size: 1, CmdDir: 1
system.cpu.icache.cpu_side::recvTimingReq: hasPC? 1, PC = 4912192, hasContextId? 1, contextID = 0, Vaddr: 4912192, Paddr: 717888
system.cpu.icache.cpu_side::recvTimingReq: hasPC? 1, PC = 4928800, hasContextId? 1, contextID = 0, Vaddr: 4928768, Paddr: 734464
system.cpu.icache.cpu_side::recvTimingReq: hasPC? 1, PC = 4928832, hasContextId? 1, contextID = 0, Vaddr: 4928832, Paddr: 734528
system.cpu.icache.cpu_side::recvTimingReq: hasPC? 1, PC = 4928893, hasContextId? 1, contextID = 0, Vaddr: 4928896, Paddr: 734592
system.cpu.dcache.cpu_side::recvTimingReq: hasPC? 1, PC = 4928810, hasContextId? 1, contextID = 0, MemCmd: ReadReq, Size: 8, CmdDir: 1
system.cpu.dcache.cpu_side::recvTimingReq: hasPC? 1, PC = 4928824, hasContextId? 1, contextID = 0, MemCmd: ReadReq, Size: 8, CmdDir: 1
system.cpu.dcache.cpu_side::recvTimingReq: hasPC? 1, PC = 4928836, hasContextId? 1, contextID = 0, MemCmd: ReadReq, Size: 8, CmdDir: 1
system.cpu.icache.cpu_side::recvTimingReq: hasPC? 1, PC = 4929080, hasContextId? 1, contextID = 0, Vaddr: 4929024, Paddr: 734720
system.cpu.icache.cpu_side::recvTimingReq: hasPC? 1, PC = 4929087, hasContextId? 1, contextID = 0, Vaddr: 4929088, Paddr: 734784
system.cpu.icache.cpu_side::recvTimingReq: hasPC? 1, PC = 4929151, hasContextId? 1, contextID = 0, Vaddr: 4929152, Paddr: 734848
system.cpu.dcache.cpu_side::recvTimingReq: hasPC? 1, PC = 4929080, hasContextId? 1, contextID = 0, MemCmd: ReadReq, Size: 4, CmdDir: 1
system.cpu.icache.cpu_side::recvTimingReq: hasPC? 1, PC = 4929216, hasContextId? 1, contextID = 0, Vaddr: 4929216, Paddr: 734912
system.cpu.dcache.cpu_side::recvTimingReq: hasPC? 1, PC = 4929090, hasContextId? 1, contextID = 0, MemCmd: ReadReq, Size: 8, CmdDir: 1
system.cpu.dcache.cpu_side::recvTimingReq: hasPC? 1, PC = 4929112, hasContextId? 1, contextID = 0, MemCmd: ReadReq, Size: 4, CmdDir: 1
system.cpu.icache.cpu_side::recvTimingReq: hasPC? 1, PC = 4929280, hasContextId? 1, contextID = 0, Vaddr: 4929280, Paddr: 734976
system.cpu.dcache.cpu_side::recvTimingReq: hasPC? 1, PC = 4929122, hasContextId? 1, contextID = 0, MemCmd: ReadReq, Size: 8, CmdDir: 1
system.cpu.dcache.cpu_side::recvTimingReq: hasPC? 1, PC = 4929144, hasContextId? 1, contextID = 0, MemCmd: ReadReq, Size: 4, CmdDir: 1
system.cpu.icache.cpu_side::recvTimingReq: hasPC? 1, PC = 4928848, hasContextId? 1, contextID = 0, Vaddr: 4928832, Paddr: 734528
system.cpu.icache.cpu_side::recvTimingReq: hasPC? 1, PC = 4928800, hasContextId? 1, contextID = 0, Vaddr: 4928768, Paddr: 734464
system.cpu.icache.cpu_side::recvTimingReq: hasPC? 1, PC = 4928832, hasContextId? 1, contextID = 0, Vaddr: 4928832, Paddr: 734528
system.cpu.icache.cpu_side::recvTimingReq: hasPC? 1, PC = 4928893, hasContextId? 1, contextID = 0, Vaddr: 4928896, Paddr: 734592
system.cpu.dcache.cpu_side::recvTimingReq: hasPC? 1, PC = 4928810, hasContextId? 1, contextID = 0, MemCmd: ReadReq, Size: 8, CmdDir: 1
system.cpu.dcache.cpu_side::recvTimingReq: hasPC? 1, PC = 4928824, hasContextId? 1, contextID = 0, MemCmd: ReadReq, Size: 8, CmdDir: 1
system.cpu.dcache.cpu_side::recvTimingReq: hasPC? 1, PC = 4928836, hasContextId? 1, contextID = 0, MemCmd: ReadReq, Size: 8, CmdDir: 1
system.cpu.dcache.cpu_side::recvTimingReq: hasPC? 1, PC = 4928940, hasContextId? 1, contextID = 0, MemCmd: ReadReq, Size: 8, CmdDir: 1
system.cpu.dcache.cpu_side::recvTimingReq: hasPC? 1, PC = 4928941, hasContextId? 1, contextID = 0, MemCmd: ReadReq, Size: 8, CmdDir: 1
system.cpu.icache.cpu_side::recvTimingReq: hasPC? 1, PC = 4928800, hasContextId? 1, contextID = 0, Vaddr: 4928768, Paddr: 734464
system.cpu.icache.cpu_side::recvTimingReq: hasPC? 1, PC = 4928832, hasContextId? 1, contextID = 0, Vaddr: 4928832, Paddr: 734528
system.cpu.icache.cpu_side::recvTimingReq: hasPC? 1, PC = 4928893, hasContextId? 1, contextID = 0, Vaddr: 4928896, Paddr: 734592
system.cpu.dcache.cpu_side::recvTimingReq: hasPC? 1, PC = 4928810, hasContextId? 1, contextID = 0, MemCmd: ReadReq, Size: 8, CmdDir: 1
system.cpu.dcache.cpu_side::recvTimingReq: hasPC? 1, PC = 4928824, hasContextId? 1, contextID = 0, MemCmd: ReadReq, Size: 8, CmdDir: 1
system.cpu.dcache.cpu_side::recvTimingReq: hasPC? 1, PC = 4928836, hasContextId? 1, contextID = 0, MemCmd: ReadReq, Size: 8, CmdDir: 1
system.cpu.dcache.cpu_side::recvTimingReq: hasPC? 1, PC = 4928940, hasContextId? 1, contextID = 0, MemCmd: ReadReq, Size: 8, CmdDir: 1
system.cpu.dcache.cpu_side::recvTimingReq: hasPC? 1, PC = 4928941, hasContextId? 1, contextID = 0, MemCmd: ReadReq, Size: 8, CmdDir: 1
system.cpu.icache.cpu_side::recvTimingReq: hasPC? 1, PC = 4928800, hasContextId? 1, contextID = 0, Vaddr: 4928768, Paddr: 734464
system.cpu.icache.cpu_side::recvTimingReq: hasPC? 1, PC = 4928832, hasContextId? 1, contextID = 0, Vaddr: 4928832, Paddr: 734528
system.cpu.icache.cpu_side::recvTimingReq: hasPC? 1, PC = 4928800, hasContextId? 1, contextID = 0, Vaddr: 4928768, Paddr: 734464
system.cpu.icache.cpu_side::recvTimingReq: hasPC? 1, PC = 4928832, hasContextId? 1, contextID = 0, Vaddr: 4928832, Paddr: 734528
system.cpu.icache.cpu_side::recvTimingReq: hasPC? 1, PC = 4928800, hasContextId? 1, contextID = 0, Vaddr: 4928768, Paddr: 734464
system.cpu.icache.cpu_side::recvTimingReq: hasPC? 1, PC = 4928832, hasContextId? 1, contextID = 0, Vaddr: 4928832, Paddr: 734528
system.cpu.dcache.cpu_side::recvTimingReq: hasPC? 1, PC = 4928810, hasContextId? 1, contextID = 0, MemCmd: ReadReq, Size: 8, CmdDir: 1
system.cpu.dcache.cpu_side::recvTimingReq: hasPC? 1, PC = 4928824, hasContextId? 1, contextID = 0, MemCmd: ReadReq, Size: 8, CmdDir: 1
system.cpu.icache.cpu_side::recvTimingReq: hasPC? 1, PC = 4928800, hasContextId? 1, contextID = 0, Vaddr: 4928768, Paddr: 734464
system.cpu.dcache.cpu_side::recvTimingReq: hasPC? 1, PC = 4928836, hasContextId? 1, contextID = 0, MemCmd: ReadReq, Size: 8, CmdDir: 1
system.cpu.dcache.cpu_side::recvTimingReq: hasPC? 1, PC = 4928824, hasContextId? 1, contextID = 0, MemCmd: ReadReq, Size: 8, CmdDir: 1
system.cpu.icache.cpu_side::recvTimingReq: hasPC? 1, PC = 4928832, hasContextId? 1, contextID = 0, Vaddr: 4928832, Paddr: 734528
system.cpu.dcache.cpu_side::recvTimingReq: hasPC? 1, PC = 4928836, hasContextId? 1, contextID = 0, MemCmd: ReadReq, Size: 8, CmdDir: 1
system.cpu.icache.cpu_side::recvTimingReq: hasPC? 1, PC = 4928832, hasContextId? 1, contextID = 0, Vaddr: 4928832, Paddr: 734528
system.cpu.icache.cpu_side::recvTimingReq: hasPC? 1, PC = 4928893, hasContextId? 1, contextID = 0, Vaddr: 4928896, Paddr: 734592
system.cpu.dcache.cpu_side::recvTimingReq: hasPC? 1, PC = 4928836, hasContextId? 1, contextID = 0, MemCmd: ReadReq, Size: 8, CmdDir: 1
system.cpu.icache.cpu_side::recvTimingReq: hasPC? 1, PC = 4928976, hasContextId? 1, contextID = 0, Vaddr: 4928960, Paddr: 734656
system.cpu.icache.cpu_side::recvTimingReq: hasPC? 1, PC = 4929024, hasContextId? 1, contextID = 0, Vaddr: 4929024, Paddr: 734720
system.cpu.icache.cpu_side::recvTimingReq: hasPC? 1, PC = 4929087, hasContextId? 1, contextID = 0, Vaddr: 4929088, Paddr: 734784
system.cpu.dcache.cpu_side::recvTimingReq: hasPC? 1, PC = 4928976, hasContextId? 1, contextID = 0, MemCmd: ReadReq, Size: 4, CmdDir: 1
system.cpu.icache.cpu_side::recvTimingReq: hasPC? 1, PC = 4929151, hasContextId? 1, contextID = 0, Vaddr: 4929152, Paddr: 734848
system.cpu.dcache.cpu_side::recvTimingReq: hasPC? 1, PC = 4928990, hasContextId? 1, contextID = 0, MemCmd: ReadReq, Size: 8, CmdDir: 1
system.cpu.dcache.cpu_side::recvTimingReq: hasPC? 1, PC = 4929016, hasContextId? 1, contextID = 0, MemCmd: ReadReq, Size: 4, CmdDir: 1
system.cpu.dcache.cpu_side::recvTimingReq: hasPC? 1, PC = 4929024, hasContextId? 1, contextID = 0, MemCmd: ReadReq, Size: 8, CmdDir: 1
system.cpu.dcache.cpu_side::recvTimingReq: hasPC? 1, PC = 4929048, hasContextId? 1, contextID = 0, MemCmd: ReadReq, Size: 8, CmdDir: 1
system.cpu.icache.cpu_side::recvTimingReq: hasPC? 1, PC = 4928848, hasContextId? 1, contextID = 0, Vaddr: 4928832, Paddr: 734528
system.cpu.icache.cpu_side::recvTimingReq: hasPC? 1, PC = 4928800, hasContextId? 1, contextID = 0, Vaddr: 4928768, Paddr: 734464
system.cpu.icache.cpu_side::recvTimingReq: hasPC? 1, PC = 4928832, hasContextId? 1, contextID = 0, Vaddr: 4928832, Paddr: 734528
system.cpu.icache.cpu_side::recvTimingReq: hasPC? 1, PC = 4928893, hasContextId? 1, contextID = 0, Vaddr: 4928896, Paddr: 734592
system.cpu.dcache.cpu_side::recvTimingReq: hasPC? 1, PC = 4928810, hasContextId? 1, contextID = 0, MemCmd: ReadReq, Size: 8, CmdDir: 1
system.cpu.dcache.cpu_side::recvTimingReq: hasPC? 1, PC = 4928824, hasContextId? 1, contextID = 0, MemCmd: ReadReq, Size: 8, CmdDir: 1
system.cpu.dcache.cpu_side::recvTimingReq: hasPC? 1, PC = 4928836, hasContextId? 1, contextID = 0, MemCmd: ReadReq, Size: 8, CmdDir: 1
system.cpu.icache.cpu_side::recvTimingReq: hasPC? 1, PC = 4928832, hasContextId? 1, contextID = 0, Vaddr: 4928832, Paddr: 734528
system.cpu.icache.cpu_side::recvTimingReq: hasPC? 1, PC = 4928893, hasContextId? 1, contextID = 0, Vaddr: 4928896, Paddr: 734592
system.cpu.dcache.cpu_side::recvTimingReq: hasPC? 1, PC = 4928836, hasContextId? 1, contextID = 0, MemCmd: ReadReq, Size: 8, CmdDir: 1
system.cpu.dcache.cpu_side::recvTimingReq: hasPC? 1, PC = 4928940, hasContextId? 1, contextID = 0, MemCmd: ReadReq, Size: 8, CmdDir: 1
system.cpu.icache.cpu_side::recvTimingReq: hasPC? 1, PC = 4928800, hasContextId? 1, contextID = 0, Vaddr: 4928768, Paddr: 734464
system.cpu.icache.cpu_side::recvTimingReq: hasPC? 1, PC = 4928832, hasContextId? 1, contextID = 0, Vaddr: 4928832, Paddr: 734528
system.cpu.icache.cpu_side::recvTimingReq: hasPC? 1, PC = 4928893, hasContextId? 1, contextID = 0, Vaddr: 4928896, Paddr: 734592
system.cpu.dcache.cpu_side::recvTimingReq: hasPC? 1, PC = 4928810, hasContextId? 1, contextID = 0, MemCmd: ReadReq, Size: 8, CmdDir: 1
system.cpu.dcache.cpu_side::recvTimingReq: hasPC? 1, PC = 4928824, hasContextId? 1, contextID = 0, MemCmd: ReadReq, Size: 8, CmdDir: 1
system.cpu.dcache.cpu_side::recvTimingReq: hasPC? 1, PC = 4928836, hasContextId? 1, contextID = 0, MemCmd: ReadReq, Size: 8, CmdDir: 1
system.cpu.icache.cpu_side::recvTimingReq: hasPC? 1, PC = 4928832, hasContextId? 1, contextID = 0, Vaddr: 4928832, Paddr: 734528
system.cpu.icache.cpu_side::recvTimingReq: hasPC? 1, PC = 4928893, hasContextId? 1, contextID = 0, Vaddr: 4928896, Paddr: 734592
system.cpu.dcache.cpu_side::recvTimingReq: hasPC? 1, PC = 4928836, hasContextId? 1, contextID = 0, MemCmd: ReadReq, Size: 8, CmdDir: 1
system.cpu.dcache.cpu_side::recvTimingReq: hasPC? 1, PC = 4928940, hasContextId? 1, contextID = 0, MemCmd: ReadReq, Size: 8, CmdDir: 1
system.cpu.dcache.cpu_side::recvTimingReq: hasPC? 1, PC = 4928941, hasContextId? 1, contextID = 0, MemCmd: ReadReq, Size: 8, CmdDir: 1
system.cpu.dcache.cpu_side::recvTimingReq: hasPC? 1, PC = 4928942, hasContextId? 1, contextID = 0, MemCmd: ReadReq, Size: 8, CmdDir: 1
system.cpu.icache.cpu_side::recvTimingReq: hasPC? 1, PC = 4928800, hasContextId? 1, contextID = 0, Vaddr: 4928768, Paddr: 734464
system.cpu.icache.cpu_side::recvTimingReq: hasPC? 1, PC = 4928832, hasContextId? 1, contextID = 0, Vaddr: 4928832, Paddr: 734528
system.cpu.icache.cpu_side::recvTimingReq: hasPC? 1, PC = 4928800, hasContextId? 1, contextID = 0, Vaddr: 4928768, Paddr: 734464
system.cpu.icache.cpu_side::recvTimingReq: hasPC? 1, PC = 4928832, hasContextId? 1, contextID = 0, Vaddr: 4928832, Paddr: 734528
system.cpu.icache.cpu_side::recvTimingReq: hasPC? 1, PC = 4928800, hasContextId? 1, contextID = 0, Vaddr: 4928768, Paddr: 734464
system.cpu.dcache.cpu_side::recvTimingReq: hasPC? 1, PC = 4928810, hasContextId? 1, contextID = 0, MemCmd: ReadReq, Size: 8, CmdDir: 1
system.cpu.icache.cpu_side::recvTimingReq: hasPC? 1, PC = 4928832, hasContextId? 1, contextID = 0, Vaddr: 4928832, Paddr: 734528
system.cpu.dcache.cpu_side::recvTimingReq: hasPC? 1, PC = 4928836, hasContextId? 1, contextID = 0, MemCmd: ReadReq, Size: 8, CmdDir: 1
system.cpu.icache.cpu_side::recvTimingReq: hasPC? 1, PC = 4928800, hasContextId? 1, contextID = 0, Vaddr: 4928768, Paddr: 734464
system.cpu.dcache.cpu_side::recvTimingReq: hasPC? 1, PC = 4928836, hasContextId? 1, contextID = 0, MemCmd: ReadReq, Size: 8, CmdDir: 1
system.cpu.icache.cpu_side::recvTimingReq: hasPC? 1, PC = 4928832, hasContextId? 1, contextID = 0, Vaddr: 4928832, Paddr: 734528
system.cpu.dcache.cpu_side::recvTimingReq: hasPC? 1, PC = 4928810, hasContextId? 1, contextID = 0, MemCmd: ReadReq, Size: 8, CmdDir: 1
system.cpu.icache.cpu_side::recvTimingReq: hasPC? 1, PC = 4928893, hasContextId? 1, contextID = 0, Vaddr: 4928896, Paddr: 734592
system.cpu.dcache.cpu_side::recvTimingReq: hasPC? 1, PC = 4928851, hasContextId? 1, contextID = 0, MemCmd: WriteReq, Size: 8, CmdDir: 1
system.cpu.dcache.cpu_side::recvTimingReq: hasPC? 1, PC = 4928940, hasContextId? 1, contextID = 0, MemCmd: ReadReq, Size: 8, CmdDir: 1
system.cpu.dcache.cpu_side::recvTimingReq: hasPC? 1, PC = 4928858, hasContextId? 1, contextID = 0, MemCmd: WriteReq, Size: 4, CmdDir: 1
system.cpu.dcache.cpu_side::recvTimingReq: hasPC? 1, PC = 4928865, hasContextId? 1, contextID = 0, MemCmd: WriteReq, Size: 8, CmdDir: 1
system.cpu.dcache.cpu_side::recvTimingReq: hasPC? 1, PC = 4928872, hasContextId? 1, contextID = 0, MemCmd: WriteReq, Size: 8, CmdDir: 1
system.cpu.dcache.cpu_side::recvTimingReq: hasPC? 1, PC = 4928879, hasContextId? 1, contextID = 0, MemCmd: WriteReq, Size: 8, CmdDir: 1
system.cpu.dcache.cpu_side::recvTimingReq: hasPC? 1, PC = 4928940, hasContextId? 1, contextID = 0, MemCmd: ReadReq, Size: 8, CmdDir: 1
system.cpu.dcache.cpu_side::recvTimingReq: hasPC? 1, PC = 4928886, hasContextId? 1, contextID = 0, MemCmd: WriteReq, Size: 8, CmdDir: 1
system.cpu.dcache.cpu_side::recvTimingReq: hasPC? 1, PC = 4928941, hasContextId? 1, contextID = 0, MemCmd: ReadReq, Size: 8, CmdDir: 1
system.cpu.dcache.cpu_side::recvTimingReq: hasPC? 1, PC = 4928942, hasContextId? 1, contextID = 0, MemCmd: ReadReq, Size: 8, CmdDir: 1
system.cpu.dcache.cpu_side::recvTimingReq: hasPC? 1, PC = 4928944, hasContextId? 1, contextID = 0, MemCmd: ReadReq, Size: 8, CmdDir: 1
system.cpu.dcache.cpu_side::recvTimingReq: hasPC? 1, PC = 4928893, hasContextId? 1, contextID = 0, MemCmd: WriteReq, Size: 4, CmdDir: 1
system.cpu.dcache.cpu_side::recvTimingReq: hasPC? 1, PC = 4928946, hasContextId? 1, contextID = 0, MemCmd: ReadReq, Size: 8, CmdDir: 1
system.cpu.dcache.cpu_side::recvTimingReq: hasPC? 1, PC = 4928900, hasContextId? 1, contextID = 0, MemCmd: WriteReq, Size: 4, CmdDir: 1
system.cpu.icache.cpu_side::recvTimingReq: hasPC? 1, PC = 4803745, hasContextId? 1, contextID = 0, Vaddr: 4803712, Paddr: 609408
system.cpu.icache.cpu_side::recvTimingReq: hasPC? 1, PC = 4803774, hasContextId? 1, contextID = 0, Vaddr: 4803776, Paddr: 609472
system.cpu.dcache.cpu_side::recvTimingReq: hasPC? 1, PC = 4803745, hasContextId? 1, contextID = 0, MemCmd: ReadReq, Size: 4, CmdDir: 1
system.cpu.icache.cpu_side::recvTimingReq: hasPC? 1, PC = 4803840, hasContextId? 1, contextID = 0, Vaddr: 4803840, Paddr: 609536
system.cpu.dcache.cpu_side::recvTimingReq: hasPC? 1, PC = 4803787, hasContextId? 1, contextID = 0, MemCmd: ReadReq, Size: 1, CmdDir: 1
system.cpu.icache.cpu_side::recvTimingReq: hasPC? 1, PC = 4912192, hasContextId? 1, contextID = 0, Vaddr: 4912192, Paddr: 717888
system.cpu.dcache.cpu_side::recvTimingReq: hasPC? 1, PC = 4803774, hasContextId? 1, contextID = 0, MemCmd: WriteReq, Size: 8, CmdDir: 1
system.cpu.dcache.cpu_side::recvTimingReq: hasPC? 1, PC = 4912211, hasContextId? 1, contextID = 0, MemCmd: ReadReq, Size: 8, CmdDir: 1
system.cpu.icache.cpu_side::recvTimingReq: hasPC? 1, PC = 4803779, hasContextId? 1, contextID = 0, Vaddr: 4803776, Paddr: 609472
system.cpu.icache.cpu_side::recvTimingReq: hasPC? 1, PC = 4803840, hasContextId? 1, contextID = 0, Vaddr: 4803840, Paddr: 609536
system.cpu.dcache.cpu_side::recvTimingReq: hasPC? 1, PC = 4803787, hasContextId? 1, contextID = 0, MemCmd: ReadReq, Size: 1, CmdDir: 1
system.cpu.dcache.cpu_side::recvTimingReq: hasPC? 1, PC = 4803808, hasContextId? 1, contextID = 0, MemCmd: ReadReq, Size: 1, CmdDir: 1
system.cpu.icache.cpu_side::recvTimingReq: hasPC? 1, PC = 4803902, hasContextId? 1, contextID = 0, Vaddr: 4803904, Paddr: 609600
system.cpu.dcache.cpu_side::recvTimingReq: hasPC? 1, PC = 4803854, hasContextId? 1, contextID = 0, MemCmd: ReadReq, Size: 1, CmdDir: 1
system.cpu.icache.cpu_side::recvTimingReq: hasPC? 1, PC = 4803866, hasContextId? 1, contextID = 0, Vaddr: 4803840, Paddr: 609536
system.cpu.icache.cpu_side::recvTimingReq: hasPC? 1, PC = 4803902, hasContextId? 1, contextID = 0, Vaddr: 4803904, Paddr: 609600
system.cpu.dcache.cpu_side::recvTimingReq: hasPC? 1, PC = 4803884, hasContextId? 1, contextID = 0, MemCmd: ReadReq, Size: 1, CmdDir: 1
system.cpu.icache.cpu_side::recvTimingReq: hasPC? 1, PC = 4803808, hasContextId? 1, contextID = 0, Vaddr: 4803776, Paddr: 609472
system.cpu.icache.cpu_side::recvTimingReq: hasPC? 1, PC = 4803840, hasContextId? 1, contextID = 0, Vaddr: 4803840, Paddr: 609536
system.cpu.dcache.cpu_side::recvTimingReq: hasPC? 1, PC = 4803808, hasContextId? 1, contextID = 0, MemCmd: ReadReq, Size: 1, CmdDir: 1
system.cpu.icache.cpu_side::recvTimingReq: hasPC? 1, PC = 4803808, hasContextId? 1, contextID = 0, Vaddr: 4803776, Paddr: 609472
system.cpu.icache.cpu_side::recvTimingReq: hasPC? 1, PC = 4803840, hasContextId? 1, contextID = 0, Vaddr: 4803840, Paddr: 609536
system.cpu.dcache.cpu_side::recvTimingReq: hasPC? 1, PC = 4803854, hasContextId? 1, contextID = 0, MemCmd: ReadReq, Size: 1, CmdDir: 1
system.cpu.dcache.cpu_side::recvTimingReq: hasPC? 1, PC = 4803884, hasContextId? 1, contextID = 0, MemCmd: ReadReq, Size: 1, CmdDir: 1
system.cpu.icache.cpu_side::recvTimingReq: hasPC? 1, PC = 4803808, hasContextId? 1, contextID = 0, Vaddr: 4803776, Paddr: 609472
system.cpu.icache.cpu_side::recvTimingReq: hasPC? 1, PC = 4803840, hasContextId? 1, contextID = 0, Vaddr: 4803840, Paddr: 609536
system.cpu.icache.cpu_side::recvTimingReq: hasPC? 1, PC = 4803902, hasContextId? 1, contextID = 0, Vaddr: 4803904, Paddr: 609600
system.cpu.dcache.cpu_side::recvTimingReq: hasPC? 1, PC = 4803884, hasContextId? 1, contextID = 0, MemCmd: ReadReq, Size: 1, CmdDir: 1
system.cpu.dcache.cpu_side::recvTimingReq: hasPC? 1, PC = 4803808, hasContextId? 1, contextID = 0, MemCmd: ReadReq, Size: 1, CmdDir: 1
system.cpu.dcache.cpu_side::recvTimingReq: hasPC? 1, PC = 4803854, hasContextId? 1, contextID = 0, MemCmd: ReadReq, Size: 1, CmdDir: 1
system.cpu.dcache.cpu_side::recvTimingReq: hasPC? 1, PC = 4803884, hasContextId? 1, contextID = 0, MemCmd: ReadReq, Size: 1, CmdDir: 1
system.cpu.icache.cpu_side::recvTimingReq: hasPC? 1, PC = 4803866, hasContextId? 1, contextID = 0, Vaddr: 4803840, Paddr: 609536
system.cpu.icache.cpu_side::recvTimingReq: hasPC? 1, PC = 4803902, hasContextId? 1, contextID = 0, Vaddr: 4803904, Paddr: 609600
system.cpu.dcache.cpu_side::recvTimingReq: hasPC? 1, PC = 4803884, hasContextId? 1, contextID = 0, MemCmd: ReadReq, Size: 1, CmdDir: 1
system.cpu.icache.cpu_side::recvTimingReq: hasPC? 1, PC = 4803896, hasContextId? 1, contextID = 0, Vaddr: 4803840, Paddr: 609536
system.cpu.icache.cpu_side::recvTimingReq: hasPC? 1, PC = 4803902, hasContextId? 1, contextID = 0, Vaddr: 4803904, Paddr: 609600
system.cpu.icache.cpu_side::recvTimingReq: hasPC? 1, PC = 4803919, hasContextId? 1, contextID = 0, Vaddr: 4803904, Paddr: 609600
system.cpu.icache.cpu_side::recvTimingReq: hasPC? 1, PC = 4803966, hasContextId? 1, contextID = 0, Vaddr: 4803968, Paddr: 609664
system.cpu.dcache.cpu_side::recvTimingReq: hasPC? 1, PC = 4803929, hasContextId? 1, contextID = 0, MemCmd: ReadReq, Size: 4, CmdDir: 1
system.cpu.icache.cpu_side::recvTimingReq: hasPC? 1, PC = 4805520, hasContextId? 1, contextID = 0, Vaddr: 4805504, Paddr: 611200
system.cpu.dcache.cpu_side::recvTimingReq: hasPC? 1, PC = 4803943, hasContextId? 1, contextID = 0, MemCmd: WriteReq, Size: 4, CmdDir: 1
system.cpu.dcache.cpu_side::recvTimingReq: hasPC? 1, PC = 4803961, hasContextId? 1, contextID = 0, MemCmd: WriteReq, Size: 8, CmdDir: 1
system.cpu.icache.cpu_side::recvTimingReq: hasPC? 1, PC = 4805568, hasContextId? 1, contextID = 0, Vaddr: 4805568, Paddr: 611264
system.cpu.dcache.cpu_side::recvTimingReq: hasPC? 1, PC = 4805534, hasContextId? 1, contextID = 0, MemCmd: ReadReq, Size: 8, CmdDir: 1
system.cpu.dcache.cpu_side::recvTimingReq: hasPC? 1, PC = 4805546, hasContextId? 1, contextID = 0, MemCmd: ReadReq, Size: 8, CmdDir: 1
system.cpu.dcache.cpu_side::recvTimingReq: hasPC? 1, PC = 4805520, hasContextId? 1, contextID = 0, MemCmd: WriteReq, Size: 8, CmdDir: 1
system.cpu.dcache.cpu_side::recvTimingReq: hasPC? 1, PC = 4805522, hasContextId? 1, contextID = 0, MemCmd: WriteReq, Size: 8, CmdDir: 1
system.cpu.dcache.cpu_side::recvTimingReq: hasPC? 1, PC = 4805524, hasContextId? 1, contextID = 0, MemCmd: WriteReq, Size: 8, CmdDir: 1
system.cpu.dcache.cpu_side::recvTimingReq: hasPC? 1, PC = 4805526, hasContextId? 1, contextID = 0, MemCmd: WriteReq, Size: 8, CmdDir: 1
system.cpu.dcache.cpu_side::recvTimingReq: hasPC? 1, PC = 4805528, hasContextId? 1, contextID = 0, MemCmd: WriteReq, Size: 8, CmdDir: 1
system.cpu.dcache.cpu_side::recvTimingReq: hasPC? 1, PC = 4805529, hasContextId? 1, contextID = 0, MemCmd: WriteReq, Size: 8, CmdDir: 1
system.cpu.icache.cpu_side::recvTimingReq: hasPC? 1, PC = 4805627, hasContextId? 1, contextID = 0, Vaddr: 4805632, Paddr: 611328
system.cpu.icache.cpu_side::recvTimingReq: hasPC? 1, PC = 4805593, hasContextId? 1, contextID = 0, Vaddr: 4805568, Paddr: 611264
system.cpu.icache.cpu_side::recvTimingReq: hasPC? 1, PC = 4805627, hasContextId? 1, contextID = 0, Vaddr: 4805632, Paddr: 611328
system.cpu.dcache.cpu_side::recvTimingReq: hasPC? 1, PC = 4805593, hasContextId? 1, contextID = 0, MemCmd: ReadReq, Size: 4, CmdDir: 1
system.cpu.dcache.cpu_side::recvTimingReq: hasPC? 1, PC = 4805598, hasContextId? 1, contextID = 0, MemCmd: ReadReq, Size: 8, CmdDir: 1
system.cpu.dcache.cpu_side::recvTimingReq: hasPC? 1, PC = 4805602, hasContextId? 1, contextID = 0, MemCmd: ReadReq, Size: 8, CmdDir: 1
system.cpu.dcache.cpu_side::recvTimingReq: hasPC? 1, PC = 4805606, hasContextId? 1, contextID = 0, MemCmd: ReadReq, Size: 8, CmdDir: 1
system.cpu.dcache.cpu_side::recvTimingReq: hasPC? 1, PC = 4805610, hasContextId? 1, contextID = 0, MemCmd: ReadReq, Size: 8, CmdDir: 1
system.cpu.icache.cpu_side::recvTimingReq: hasPC? 1, PC = 4805695, hasContextId? 1, contextID = 0, Vaddr: 4805696, Paddr: 611392
system.cpu.icache.cpu_side::recvTimingReq: hasPC? 1, PC = 4805703, hasContextId? 1, contextID = 0, Vaddr: 4805696, Paddr: 611392
system.cpu.icache.cpu_side::recvTimingReq: hasPC? 1, PC = 4805584, hasContextId? 1, contextID = 0, Vaddr: 4805568, Paddr: 611264
system.cpu.icache.cpu_side::recvTimingReq: hasPC? 1, PC = 4805627, hasContextId? 1, contextID = 0, Vaddr: 4805632, Paddr: 611328
system.cpu.icache.cpu_side::recvTimingReq: hasPC? 1, PC = 4805703, hasContextId? 1, contextID = 0, Vaddr: 4805696, Paddr: 611392
system.cpu.dcache.cpu_side::recvTimingReq: hasPC? 1, PC = 4805593, hasContextId? 1, contextID = 0, MemCmd: ReadReq, Size: 4, CmdDir: 1
system.cpu.dcache.cpu_side::recvTimingReq: hasPC? 1, PC = 4805598, hasContextId? 1, contextID = 0, MemCmd: ReadReq, Size: 8, CmdDir: 1
system.cpu.dcache.cpu_side::recvTimingReq: hasPC? 1, PC = 4805602, hasContextId? 1, contextID = 0, MemCmd: ReadReq, Size: 8, CmdDir: 1
system.cpu.dcache.cpu_side::recvTimingReq: hasPC? 1, PC = 4805606, hasContextId? 1, contextID = 0, MemCmd: ReadReq, Size: 8, CmdDir: 1
system.cpu.dcache.cpu_side::recvTimingReq: hasPC? 1, PC = 4805610, hasContextId? 1, contextID = 0, MemCmd: ReadReq, Size: 8, CmdDir: 1
system.cpu.icache.cpu_side::recvTimingReq: hasPC? 1, PC = 4805584, hasContextId? 1, contextID = 0, Vaddr: 4805568, Paddr: 611264
system.cpu.icache.cpu_side::recvTimingReq: hasPC? 1, PC = 4805627, hasContextId? 1, contextID = 0, Vaddr: 4805632, Paddr: 611328
system.cpu.icache.cpu_side::recvTimingReq: hasPC? 1, PC = 4805695, hasContextId? 1, contextID = 0, Vaddr: 4805696, Paddr: 611392
system.cpu.dcache.cpu_side::recvTimingReq: hasPC? 1, PC = 4805593, hasContextId? 1, contextID = 0, MemCmd: ReadReq, Size: 4, CmdDir: 1
system.cpu.dcache.cpu_side::recvTimingReq: hasPC? 1, PC = 4805593, hasContextId? 1, contextID = 0, MemCmd: ReadReq, Size: 4, CmdDir: 1
system.cpu.dcache.cpu_side::recvTimingReq: hasPC? 1, PC = 4805598, hasContextId? 1, contextID = 0, MemCmd: ReadReq, Size: 8, CmdDir: 1
system.cpu.dcache.cpu_side::recvTimingReq: hasPC? 1, PC = 4805602, hasContextId? 1, contextID = 0, MemCmd: ReadReq, Size: 8, CmdDir: 1
system.cpu.dcache.cpu_side::recvTimingReq: hasPC? 1, PC = 4805606, hasContextId? 1, contextID = 0, MemCmd: ReadReq, Size: 8, CmdDir: 1
system.cpu.dcache.cpu_side::recvTimingReq: hasPC? 1, PC = 4805610, hasContextId? 1, contextID = 0, MemCmd: ReadReq, Size: 8, CmdDir: 1
system.cpu.icache.cpu_side::recvTimingReq: hasPC? 1, PC = 4805703, hasContextId? 1, contextID = 0, Vaddr: 4805696, Paddr: 611392
system.cpu.icache.cpu_side::recvTimingReq: hasPC? 1, PC = 4805758, hasContextId? 1, contextID = 0, Vaddr: 4805760, Paddr: 611456
system.cpu.dcache.cpu_side::recvTimingReq: hasPC? 1, PC = 4805703, hasContextId? 1, contextID = 0, MemCmd: ReadReq, Size: 8, CmdDir: 1
system.cpu.dcache.cpu_side::recvTimingReq: hasPC? 1, PC = 4805748, hasContextId? 1, contextID = 0, MemCmd: ReadReq, Size: 8, CmdDir: 1
system.cpu.icache.cpu_side::recvTimingReq: hasPC? 1, PC = 4915968, hasContextId? 1, contextID = 0, Vaddr: 4915968, Paddr: 721664
system.cpu.dcache.cpu_side::recvTimingReq: hasPC? 1, PC = 4805627, hasContextId? 1, contextID = 0, MemCmd: WriteReq, Size: 8, CmdDir: 1
system.cpu.dcache.cpu_side::recvTimingReq: hasPC? 1, PC = 4805636, hasContextId? 1, contextID = 0, MemCmd: WriteReq, Size: 8, CmdDir: 1
system.cpu.dcache.cpu_side::recvTimingReq: hasPC? 1, PC = 4805723, hasContextId? 1, contextID = 0, MemCmd: WriteReq, Size: 8, CmdDir: 1
system.cpu.dcache.cpu_side::recvTimingReq: hasPC? 1, PC = 4915982, hasContextId? 1, contextID = 0, MemCmd: ReadReq, Size: 8, CmdDir: 1
system.cpu.dcache.cpu_side::recvTimingReq: hasPC? 1, PC = 4915997, hasContextId? 1, contextID = 0, MemCmd: ReadReq, Size: 4, CmdDir: 1
system.cpu.dcache.cpu_side::recvTimingReq: hasPC? 1, PC = 4916029, hasContextId? 1, contextID = 0, MemCmd: ReadReq, Size: 8, CmdDir: 1
system.cpu.dcache.cpu_side::recvTimingReq: hasPC? 1, PC = 4915968, hasContextId? 1, contextID = 0, MemCmd: WriteReq, Size: 8, CmdDir: 1
system.cpu.dcache.cpu_side::recvTimingReq: hasPC? 1, PC = 4915973, hasContextId? 1, contextID = 0, MemCmd: WriteReq, Size: 8, CmdDir: 1
system.cpu.icache.cpu_side::recvTimingReq: hasPC? 1, PC = 4805728, hasContextId? 1, contextID = 0, Vaddr: 4805696, Paddr: 611392
system.cpu.icache.cpu_side::recvTimingReq: hasPC? 1, PC = 4805758, hasContextId? 1, contextID = 0, Vaddr: 4805760, Paddr: 611456
system.cpu.dcache.cpu_side::recvTimingReq: hasPC? 1, PC = 4805728, hasContextId? 1, contextID = 0, MemCmd: ReadReq, Size: 8, CmdDir: 1
system.cpu.dcache.cpu_side::recvTimingReq: hasPC? 1, PC = 4805748, hasContextId? 1, contextID = 0, MemCmd: ReadReq, Size: 8, CmdDir: 1
system.cpu.icache.cpu_side::recvTimingReq: hasPC? 1, PC = 4916032, hasContextId? 1, contextID = 0, Vaddr: 4916032, Paddr: 721728
system.cpu.icache.cpu_side::recvTimingReq: hasPC? 1, PC = 4916095, hasContextId? 1, contextID = 0, Vaddr: 4916096, Paddr: 721792
system.cpu.dcache.cpu_side::recvTimingReq: hasPC? 1, PC = 4916046, hasContextId? 1, contextID = 0, MemCmd: ReadReq, Size: 8, CmdDir: 1
system.cpu.icache.cpu_side::recvTimingReq: hasPC? 1, PC = 5115536, hasContextId? 1, contextID = 0, Vaddr: 5115520, Paddr: 921216
system.cpu.dcache.cpu_side::recvTimingReq: hasPC? 1, PC = 4916034, hasContextId? 1, contextID = 0, MemCmd: WriteReq, Size: 8, CmdDir: 1
system.cpu.dcache.cpu_side::recvTimingReq: hasPC? 1, PC = 5115570, hasContextId? 1, contextID = 0, MemCmd: ReadReq, Size: 8, CmdDir: 1
system.cpu.dcache.cpu_side::recvTimingReq: hasPC? 1, PC = 5115559, hasContextId? 1, contextID = 0, MemCmd: WriteReq, Size: 8, CmdDir: 1
system.cpu.icache.cpu_side::recvTimingReq: hasPC? 1, PC = 4916039, hasContextId? 1, contextID = 0, Vaddr: 4916032, Paddr: 721728
system.cpu.icache.cpu_side::recvTimingReq: hasPC? 1, PC = 4916095, hasContextId? 1, contextID = 0, Vaddr: 4916096, Paddr: 721792
system.cpu.dcache.cpu_side::recvTimingReq: hasPC? 1, PC = 4916046, hasContextId? 1, contextID = 0, MemCmd: ReadReq, Size: 8, CmdDir: 1
system.cpu.icache.cpu_side::recvTimingReq: hasPC? 1, PC = 5115536, hasContextId? 1, contextID = 0, Vaddr: 5115520, Paddr: 921216
system.cpu.dcache.cpu_side::recvTimingReq: hasPC? 1, PC = 4916059, hasContextId? 1, contextID = 0, MemCmd: WriteReq, Size: 8, CmdDir: 1
system.cpu.dcache.cpu_side::recvTimingReq: hasPC? 1, PC = 5115570, hasContextId? 1, contextID = 0, MemCmd: ReadReq, Size: 8, CmdDir: 1
system.cpu.dcache.cpu_side::recvTimingReq: hasPC? 1, PC = 5115559, hasContextId? 1, contextID = 0, MemCmd: WriteReq, Size: 8, CmdDir: 1
system.cpu.icache.cpu_side::recvTimingReq: hasPC? 1, PC = 4916064, hasContextId? 1, contextID = 0, Vaddr: 4916032, Paddr: 721728
system.cpu.icache.cpu_side::recvTimingReq: hasPC? 1, PC = 4916095, hasContextId? 1, contextID = 0, Vaddr: 4916096, Paddr: 721792
system.cpu.dcache.cpu_side::recvTimingReq: hasPC? 1, PC = 4916080, hasContextId? 1, contextID = 0, MemCmd: ReadReq, Size: 8, CmdDir: 1
system.cpu.icache.cpu_side::recvTimingReq: hasPC? 1, PC = 4916012, hasContextId? 1, contextID = 0, Vaddr: 4915968, Paddr: 721664
system.cpu.dcache.cpu_side::recvTimingReq: hasPC? 1, PC = 4916015, hasContextId? 1, contextID = 0, MemCmd: ReadReq, Size: 8, CmdDir: 1
system.cpu.dcache.cpu_side::recvTimingReq: hasPC? 1, PC = 4916020, hasContextId? 1, contextID = 0, MemCmd: ReadReq, Size: 8, CmdDir: 1
system.cpu.dcache.cpu_side::recvTimingReq: hasPC? 1, PC = 4916029, hasContextId? 1, contextID = 0, MemCmd: ReadReq, Size: 8, CmdDir: 1
system.cpu.icache.cpu_side::recvTimingReq: hasPC? 1, PC = 4805728, hasContextId? 1, contextID = 0, Vaddr: 4805696, Paddr: 611392
system.cpu.icache.cpu_side::recvTimingReq: hasPC? 1, PC = 4805758, hasContextId? 1, contextID = 0, Vaddr: 4805760, Paddr: 611456
system.cpu.dcache.cpu_side::recvTimingReq: hasPC? 1, PC = 4805728, hasContextId? 1, contextID = 0, MemCmd: ReadReq, Size: 8, CmdDir: 1
system.cpu.dcache.cpu_side::recvTimingReq: hasPC? 1, PC = 4805748, hasContextId? 1, contextID = 0, MemCmd: ReadReq, Size: 8, CmdDir: 1
system.cpu.icache.cpu_side::recvTimingReq: hasPC? 1, PC = 4805824, hasContextId? 1, contextID = 0, Vaddr: 4805824, Paddr: 611520
system.cpu.dcache.cpu_side::recvTimingReq: hasPC? 1, PC = 4805733, hasContextId? 1, contextID = 0, MemCmd: WriteReq, Size: 8, CmdDir: 1
system.cpu.dcache.cpu_side::recvTimingReq: hasPC? 1, PC = 4805819, hasContextId? 1, contextID = 0, MemCmd: ReadReq, Size: 8, CmdDir: 1
system.cpu.icache.cpu_side::recvTimingReq: hasPC? 1, PC = 4896256, hasContextId? 1, contextID = 0, Vaddr: 4896256, Paddr: 701952
system.cpu.dcache.cpu_side::recvTimingReq: hasPC? 1, PC = 4805782, hasContextId? 1, contextID = 0, MemCmd: WriteReq, Size: 8, CmdDir: 1
system.cpu.icache.cpu_side::recvTimingReq: hasPC? 1, PC = 4896317, hasContextId? 1, contextID = 0, Vaddr: 4896320, Paddr: 702016
system.cpu.dcache.cpu_side::recvTimingReq: hasPC? 1, PC = 4896270, hasContextId? 1, contextID = 0, MemCmd: ReadReq, Size: 1, CmdDir: 1
system.cpu.icache.cpu_side::recvTimingReq: hasPC? 1, PC = 4896384, hasContextId? 1, contextID = 0, Vaddr: 4896384, Paddr: 702080
system.cpu.dcache.cpu_side::recvTimingReq: hasPC? 1, PC = 4805795, hasContextId? 1, contextID = 0, MemCmd: WriteReq, Size: 8, CmdDir: 1
system.cpu.dcache.cpu_side::recvTimingReq: hasPC? 1, PC = 4805800, hasContextId? 1, contextID = 0, MemCmd: WriteReq, Size: 8, CmdDir: 1
system.cpu.icache.cpu_side::recvTimingReq: hasPC? 1, PC = 4896448, hasContextId? 1, contextID = 0, Vaddr: 4896448, Paddr: 702144
system.cpu.dcache.cpu_side::recvTimingReq: hasPC? 1, PC = 4896416, hasContextId? 1, contextID = 0, MemCmd: ReadReq, Size: 1, CmdDir: 1
system.cpu.icache.cpu_side::recvTimingReq: hasPC? 1, PC = 4896448, hasContextId? 1, contextID = 0, Vaddr: 4896448, Paddr: 702144
system.cpu.dcache.cpu_side::recvTimingReq: hasPC? 1, PC = 4805807, hasContextId? 1, contextID = 0, MemCmd: WriteReq, Size: 1, CmdDir: 1
system.cpu.dcache.cpu_side::recvTimingReq: hasPC? 1, PC = 4805814, hasContextId? 1, contextID = 0, MemCmd: WriteReq, Size: 8, CmdDir: 1
system.cpu.dcache.cpu_side::recvTimingReq: hasPC? 1, PC = 4896384, hasContextId? 1, contextID = 0, MemCmd: WriteReq, Size: 8, CmdDir: 1
system.cpu.icache.cpu_side::recvTimingReq: hasPC? 1, PC = 4896511, hasContextId? 1, contextID = 0, Vaddr: 4896512, Paddr: 702208
system.cpu.dcache.cpu_side::recvTimingReq: hasPC? 1, PC = 4896466, hasContextId? 1, contextID = 0, MemCmd: ReadReq, Size: 8, CmdDir: 1
system.cpu.dcache.cpu_side::recvTimingReq: hasPC? 1, PC = 4896469, hasContextId? 1, contextID = 0, MemCmd: ReadReq, Size: 8, CmdDir: 1
system.cpu.dcache.cpu_side::recvTimingReq: hasPC? 1, PC = 4896473, hasContextId? 1, contextID = 0, MemCmd: ReadReq, Size: 8, CmdDir: 1
system.cpu.dcache.cpu_side::recvTimingReq: hasPC? 1, PC = 4896477, hasContextId? 1, contextID = 0, MemCmd: ReadReq, Size: 8, CmdDir: 1
system.cpu.dcache.cpu_side::recvTimingReq: hasPC? 1, PC = 4896508, hasContextId? 1, contextID = 0, MemCmd: ReadReq, Size: 8, CmdDir: 1
system.cpu.icache.cpu_side::recvTimingReq: hasPC? 1, PC = 4896560, hasContextId? 1, contextID = 0, Vaddr: 4896512, Paddr: 702208
system.cpu.dcache.cpu_side::recvTimingReq: hasPC? 1, PC = 4896481, hasContextId? 1, contextID = 0, MemCmd: WriteReq, Size: 8, CmdDir: 1
system.cpu.dcache.cpu_side::recvTimingReq: hasPC? 1, PC = 4896563, hasContextId? 1, contextID = 0, MemCmd: ReadReq, Size: 8, CmdDir: 1
system.cpu.dcache.cpu_side::recvTimingReq: hasPC? 1, PC = 4896574, hasContextId? 1, contextID = 0, MemCmd: ReadReq, Size: 8, CmdDir: 1
system.cpu.icache.cpu_side::recvTimingReq: hasPC? 1, PC = 4805819, hasContextId? 1, contextID = 0, Vaddr: 4805760, Paddr: 611456
system.cpu.icache.cpu_side::recvTimingReq: hasPC? 1, PC = 4805824, hasContextId? 1, contextID = 0, Vaddr: 4805824, Paddr: 611520
system.cpu.icache.cpu_side::recvTimingReq: hasPC? 1, PC = 4805885, hasContextId? 1, contextID = 0, Vaddr: 4805888, Paddr: 611584
system.cpu.dcache.cpu_side::recvTimingReq: hasPC? 1, PC = 4805819, hasContextId? 1, contextID = 0, MemCmd: ReadReq, Size: 8, CmdDir: 1
system.cpu.dcache.cpu_side::recvTimingReq: hasPC? 1, PC = 4896484, hasContextId? 1, contextID = 0, MemCmd: WriteReq, Size: 8, CmdDir: 1
system.cpu.dcache.cpu_side::recvTimingReq: hasPC? 1, PC = 4896488, hasContextId? 1, contextID = 0, MemCmd: WriteReq, Size: 8, CmdDir: 1
system.cpu.dcache.cpu_side::recvTimingReq: hasPC? 1, PC = 4896492, hasContextId? 1, contextID = 0, MemCmd: WriteReq, Size: 8, CmdDir: 1
system.cpu.dcache.cpu_side::recvTimingReq: hasPC? 1, PC = 4805838, hasContextId? 1, contextID = 0, MemCmd: WriteReq, Size: 8, CmdDir: 1
system.cpu.icache.cpu_side::recvTimingReq: hasPC? 1, PC = 4805942, hasContextId? 1, contextID = 0, Vaddr: 4805952, Paddr: 611648
system.cpu.dcache.cpu_side::recvTimingReq: hasPC? 1, PC = 4805847, hasContextId? 1, contextID = 0, MemCmd: WriteReq, Size: 8, CmdDir: 1
system.cpu.dcache.cpu_side::recvTimingReq: hasPC? 1, PC = 4805850, hasContextId? 1, contextID = 0, MemCmd: WriteReq, Size: 8, CmdDir: 1
system.cpu.icache.cpu_side::recvTimingReq: hasPC? 1, PC = 4805904, hasContextId? 1, contextID = 0, Vaddr: 4805888, Paddr: 611584
system.cpu.icache.cpu_side::recvTimingReq: hasPC? 1, PC = 4805942, hasContextId? 1, contextID = 0, Vaddr: 4805952, Paddr: 611648
system.cpu.dcache.cpu_side::recvTimingReq: hasPC? 1, PC = 4805904, hasContextId? 1, contextID = 0, MemCmd: ReadReq, Size: 1, CmdDir: 1
system.cpu.icache.cpu_side::recvTimingReq: hasPC? 1, PC = 4806016, hasContextId? 1, contextID = 0, Vaddr: 4806016, Paddr: 611712
system.cpu.dcache.cpu_side::recvTimingReq: hasPC? 1, PC = 4805904, hasContextId? 1, contextID = 0, MemCmd: WriteReq, Size: 1, CmdDir: 1
system.cpu.dcache.cpu_side::recvTimingReq: hasPC? 1, PC = 4805914, hasContextId? 1, contextID = 0, MemCmd: WriteReq, Size: 8, CmdDir: 1
system.cpu.icache.cpu_side::recvTimingReq: hasPC? 1, PC = 4806077, hasContextId? 1, contextID = 0, Vaddr: 4806080, Paddr: 611776
system.cpu.dcache.cpu_side::recvTimingReq: hasPC? 1, PC = 4806016, hasContextId? 1, contextID = 0, MemCmd: ReadReq, Size: 8, CmdDir: 1
system.cpu.dcache.cpu_side::recvTimingReq: hasPC? 1, PC = 4805921, hasContextId? 1, contextID = 0, MemCmd: WriteReq, Size: 8, CmdDir: 1
system.cpu.dcache.cpu_side::recvTimingReq: hasPC? 1, PC = 4805928, hasContextId? 1, contextID = 0, MemCmd: WriteReq, Size: 8, CmdDir: 1
system.cpu.dcache.cpu_side::recvTimingReq: hasPC? 1, PC = 4805935, hasContextId? 1, contextID = 0, MemCmd: WriteReq, Size: 8, CmdDir: 1
system.cpu.dcache.cpu_side::recvTimingReq: hasPC? 1, PC = 4805942, hasContextId? 1, contextID = 0, MemCmd: WriteReq, Size: 8, CmdDir: 1
system.cpu.dcache.cpu_side::recvTimingReq: hasPC? 1, PC = 4805953, hasContextId? 1, contextID = 0, MemCmd: WriteReq, Size: 8, CmdDir: 1
system.cpu.dcache.cpu_side::recvTimingReq: hasPC? 1, PC = 4806088, hasContextId? 1, contextID = 0, MemCmd: ReadReq, Size: 8, CmdDir: 1
system.cpu.dcache.cpu_side::recvTimingReq: hasPC? 1, PC = 4806089, hasContextId? 1, contextID = 0, MemCmd: ReadReq, Size: 8, CmdDir: 1
system.cpu.dcache.cpu_side::recvTimingReq: hasPC? 1, PC = 4806090, hasContextId? 1, contextID = 0, MemCmd: ReadReq, Size: 8, CmdDir: 1
system.cpu.dcache.cpu_side::recvTimingReq: hasPC? 1, PC = 4806092, hasContextId? 1, contextID = 0, MemCmd: ReadReq, Size: 8, CmdDir: 1
system.cpu.dcache.cpu_side::recvTimingReq: hasPC? 1, PC = 4806094, hasContextId? 1, contextID = 0, MemCmd: ReadReq, Size: 8, CmdDir: 1
system.cpu.dcache.cpu_side::recvTimingReq: hasPC? 1, PC = 4806096, hasContextId? 1, contextID = 0, MemCmd: ReadReq, Size: 8, CmdDir: 1
system.cpu.dcache.cpu_side::recvTimingReq: hasPC? 1, PC = 4806098, hasContextId? 1, contextID = 0, MemCmd: ReadReq, Size: 8, CmdDir: 1
system.cpu.icache.cpu_side::recvTimingReq: hasPC? 1, PC = 4803966, hasContextId? 1, contextID = 0, Vaddr: 4803904, Paddr: 609600
system.cpu.icache.cpu_side::recvTimingReq: hasPC? 1, PC = 4803966, hasContextId? 1, contextID = 0, Vaddr: 4803968, Paddr: 609664
system.cpu.icache.cpu_side::recvTimingReq: hasPC? 1, PC = 4804029, hasContextId? 1, contextID = 0, Vaddr: 4804032, Paddr: 609728
system.cpu.dcache.cpu_side::recvTimingReq: hasPC? 1, PC = 4804011, hasContextId? 1, contextID = 0, MemCmd: ReadReq, Size: 8, CmdDir: 1
system.cpu.dcache.cpu_side::recvTimingReq: hasPC? 1, PC = 4805964, hasContextId? 1, contextID = 0, MemCmd: WriteReq, Size: 8, CmdDir: 1
system.cpu.icache.cpu_side::recvTimingReq: hasPC? 1, PC = 4804095, hasContextId? 1, contextID = 0, Vaddr: 4804096, Paddr: 609792
system.cpu.dcache.cpu_side::recvTimingReq: hasPC? 1, PC = 4805975, hasContextId? 1, contextID = 0, MemCmd: WriteReq, Size: 8, CmdDir: 1
system.cpu.icache.cpu_side::recvTimingReq: hasPC? 1, PC = 4813696, hasContextId? 1, contextID = 0, Vaddr: 4813696, Paddr: 619392
system.cpu.dcache.cpu_side::recvTimingReq: hasPC? 1, PC = 4805986, hasContextId? 1, contextID = 0, MemCmd: WriteReq, Size: 8, CmdDir: 1
system.cpu.icache.cpu_side::recvTimingReq: hasPC? 1, PC = 4813760, hasContextId? 1, contextID = 0, Vaddr: 4813760, Paddr: 619456
system.cpu.dcache.cpu_side::recvTimingReq: hasPC? 1, PC = 4813715, hasContextId? 1, contextID = 0, MemCmd: ReadReq, Size: 4, CmdDir: 1
system.cpu.icache.cpu_side::recvTimingReq: hasPC? 1, PC = 4813753, hasContextId? 1, contextID = 0, Vaddr: 4813696, Paddr: 619392
system.cpu.icache.cpu_side::recvTimingReq: hasPC? 1, PC = 4813760, hasContextId? 1, contextID = 0, Vaddr: 4813760, Paddr: 619456
system.cpu.dcache.cpu_side::recvTimingReq: hasPC? 1, PC = 4806023, hasContextId? 1, contextID = 0, MemCmd: WriteReq, Size: 8, CmdDir: 1
system.cpu.dcache.cpu_side::recvTimingReq: hasPC? 1, PC = 4806046, hasContextId? 1, contextID = 0, MemCmd: WriteReq, Size: 8, CmdDir: 1
system.cpu.icache.cpu_side::recvTimingReq: hasPC? 1, PC = 4813824, hasContextId? 1, contextID = 0, Vaddr: 4813824, Paddr: 619520
system.cpu.icache.cpu_side::recvTimingReq: hasPC? 1, PC = 4813843, hasContextId? 1, contextID = 0, Vaddr: 4813824, Paddr: 619520
system.cpu.icache.cpu_side::recvTimingReq: hasPC? 1, PC = 4813740, hasContextId? 1, contextID = 0, Vaddr: 4813696, Paddr: 619392
system.cpu.icache.cpu_side::recvTimingReq: hasPC? 1, PC = 4813760, hasContextId? 1, contextID = 0, Vaddr: 4813760, Paddr: 619456
system.cpu.dcache.cpu_side::recvTimingReq: hasPC? 1, PC = 4806061, hasContextId? 1, contextID = 0, MemCmd: WriteReq, Size: 8, CmdDir: 1
system.cpu.dcache.cpu_side::recvTimingReq: hasPC? 1, PC = 4806077, hasContextId? 1, contextID = 0, MemCmd: WriteReq, Size: 8, CmdDir: 1
system.cpu.icache.cpu_side::recvTimingReq: hasPC? 1, PC = 4813843, hasContextId? 1, contextID = 0, Vaddr: 4813824, Paddr: 619520
system.cpu.dcache.cpu_side::recvTimingReq: hasPC? 1, PC = 4803966, hasContextId? 1, contextID = 0, MemCmd: WriteReq, Size: 8, CmdDir: 1
system.cpu.dcache.cpu_side::recvTimingReq: hasPC? 1, PC = 4813740, hasContextId? 1, contextID = 0, MemCmd: ReadReq, Size: 4, CmdDir: 1
system.cpu.dcache.cpu_side::recvTimingReq: hasPC? 1, PC = 4813753, hasContextId? 1, contextID = 0, MemCmd: ReadReq, Size: 8, CmdDir: 1
system.cpu.dcache.cpu_side::recvTimingReq: hasPC? 1, PC = 4813776, hasContextId? 1, contextID = 0, MemCmd: ReadReq, Size: 8, CmdDir: 1
system.cpu.icache.cpu_side::recvTimingReq: hasPC? 1, PC = 4813886, hasContextId? 1, contextID = 0, Vaddr: 4813888, Paddr: 619584
system.cpu.dcache.cpu_side::recvTimingReq: hasPC? 1, PC = 4813848, hasContextId? 1, contextID = 0, MemCmd: ReadReq, Size: 8, CmdDir: 1
system.cpu.dcache.cpu_side::recvTimingReq: hasPC? 1, PC = 4803986, hasContextId? 1, contextID = 0, MemCmd: WriteReq, Size: 1, CmdDir: 1
system.cpu.icache.cpu_side::recvTimingReq: hasPC? 1, PC = 4813776, hasContextId? 1, contextID = 0, Vaddr: 4813760, Paddr: 619456
system.cpu.dcache.cpu_side::recvTimingReq: hasPC? 1, PC = 4803994, hasContextId? 1, contextID = 0, MemCmd: WriteReq, Size: 1, CmdDir: 1
system.cpu.dcache.cpu_side::recvTimingReq: hasPC? 1, PC = 4804050, hasContextId? 1, contextID = 0, MemCmd: ReadReq, Size: 8, CmdDir: 1
[...]
system.cpu.icache.cpu_side::recvTimingReq: hasPC? 1, PC = 4221565, hasContextId? 1, contextID = 0, Vaddr: 4221568, Paddr: 27264
system.cpu.dcache.cpu_side::recvTimingReq: hasPC? 1, PC = 4811066, hasContextId? 1, contextID = 0, MemCmd: ReadReq, Size: 8, CmdDir: 1
system.cpu.dcache.cpu_side::recvTimingReq: hasPC? 1, PC = 4811083, hasContextId? 1, contextID = 0, MemCmd: ReadReq, Size: 8, CmdDir: 1
system.cpu.dcache.cpu_side::recvTimingReq: hasPC? 1, PC = 4811088, hasContextId? 1, contextID = 0, MemCmd: ReadReq, Size: 8, CmdDir: 1
system.cpu.dcache.cpu_side::recvTimingReq: hasPC? 1, PC = 4811093, hasContextId? 1, contextID = 0, MemCmd: ReadReq, Size: 8, CmdDir: 1
system.cpu.dcache.cpu_side::recvTimingReq: hasPC? 1, PC = 4811098, hasContextId? 1, contextID = 0, MemCmd: ReadReq, Size: 8, CmdDir: 1
system.cpu.dcache.cpu_side::recvTimingReq: hasPC? 1, PC = 4811103, hasContextId? 1, contextID = 0, MemCmd: ReadReq, Size: 8, CmdDir: 1
system.cpu.icache.cpu_side::recvTimingReq: hasPC? 1, PC = 4221548, hasContextId? 1, contextID = 0, Vaddr: 4221504, Paddr: 27200
system.cpu.dcache.cpu_side::recvTimingReq: hasPC? 1, PC = 4811108, hasContextId? 1, contextID = 0, MemCmd: ReadReq, Size: 8, CmdDir: 1
system.cpu.dcache.cpu_side::recvTimingReq: hasPC? 1, PC = 4811117, hasContextId? 1, contextID = 0, MemCmd: ReadReq, Size: 8, CmdDir: 1
system.cpu.icache.cpu_side::recvTimingReq: hasPC? 1, PC = 4221565, hasContextId? 1, contextID = 0, Vaddr: 4221568, Paddr: 27264
system.cpu.icache.cpu_side::recvTimingReq: hasPC? 1, PC = 4219888, hasContextId? 1, contextID = 0, Vaddr: 4219840, Paddr: 25536
system.cpu.icache.cpu_side::recvTimingReq: hasPC? 1, PC = 4219903, hasContextId? 1, contextID = 0, Vaddr: 4219904, Paddr: 25600
system.cpu.dcache.cpu_side::recvTimingReq: hasPC? 1, PC = 4889328, hasContextId? 1, contextID = 0, MemCmd: ReadReq, Size: 1, CmdDir: 1
system.cpu.dcache.cpu_side::recvTimingReq: hasPC? 1, PC = 4889360, hasContextId? 1, contextID = 0, MemCmd: ReadReq, Size: 2, CmdDir: 1
system.cpu.dcache.cpu_side::recvTimingReq: hasPC? 1, PC = 4889360, hasContextId? 1, contextID = 0, MemCmd: ReadReq, Size: 6, CmdDir: 1
system.cpu.icache.cpu_side::recvTimingReq: hasPC? 1, PC = 4219968, hasContextId? 1, contextID = 0, Vaddr: 4219968, Paddr: 25664
system.cpu.dcache.cpu_side::recvTimingReq: hasPC? 1, PC = 4889386, hasContextId? 1, contextID = 0, MemCmd: ReadReq, Size: 8, CmdDir: 1
system.cpu.dcache.cpu_side::recvTimingReq: hasPC? 1, PC = 4889412, hasContextId? 1, contextID = 0, MemCmd: ReadReq, Size: 8, CmdDir: 1
system.cpu.icache.cpu_side::recvTimingReq: hasPC? 1, PC = 4889328, hasContextId? 1, contextID = 0, Vaddr: 4889280, Paddr: 694976
system.cpu.dcache.cpu_side::recvTimingReq: hasPC? 1, PC = 4889328, hasContextId? 1, contextID = 0, MemCmd: ReadReq, Size: 1, CmdDir: 1
system.cpu.dcache.cpu_side::recvTimingReq: hasPC? 1, PC = 4889328, hasContextId? 1, contextID = 0, MemCmd: ReadReq, Size: 1, CmdDir: 1
system.cpu.dcache.cpu_side::recvTimingReq: hasPC? 1, PC = 4889328, hasContextId? 1, contextID = 0, MemCmd: ReadReq, Size: 1, CmdDir: 1
system.cpu.icache.cpu_side::recvTimingReq: hasPC? 1, PC = 4889344, hasContextId? 1, contextID = 0, Vaddr: 4889344, Paddr: 695040
system.cpu.icache.cpu_side::recvTimingReq: hasPC? 1, PC = 4889472, hasContextId? 1, contextID = 0, Vaddr: 4889472, Paddr: 695168
system.cpu.icache.cpu_side::recvTimingReq: hasPC? 1, PC = 4889536, hasContextId? 1, contextID = 0, Vaddr: 4889536, Paddr: 695232
system.cpu.dcache.cpu_side::recvTimingReq: hasPC? 1, PC = 4889360, hasContextId? 1, contextID = 0, MemCmd: ReadReq, Size: 8, CmdDir: 1
system.cpu.dcache.cpu_side::recvTimingReq: hasPC? 1, PC = 4889386, hasContextId? 1, contextID = 0, MemCmd: ReadReq, Size: 8, CmdDir: 1
system.cpu.icache.cpu_side::recvTimingReq: hasPC? 1, PC = 4889598, hasContextId? 1, contextID = 0, Vaddr: 4889600, Paddr: 695296
system.cpu.dcache.cpu_side::recvTimingReq: hasPC? 1, PC = 4889544, hasContextId? 1, contextID = 0, MemCmd: ReadReq, Size: 8, CmdDir: 1
system.cpu.dcache.cpu_side::recvTimingReq: hasPC? 1, PC = 4889570, hasContextId? 1, contextID = 0, MemCmd: ReadReq, Size: 1, CmdDir: 1
system.cpu.dcache.cpu_side::recvTimingReq: hasPC? 1, PC = 4889594, hasContextId? 1, contextID = 0, MemCmd: ReadReq, Size: 1, CmdDir: 1
system.cpu.icache.cpu_side::recvTimingReq: hasPC? 1, PC = 4811066, hasContextId? 1, contextID = 0, Vaddr: 4811008, Paddr: 616704
system.cpu.icache.cpu_side::recvTimingReq: hasPC? 1, PC = 4811066, hasContextId? 1, contextID = 0, Vaddr: 4811072, Paddr: 616768
system.cpu.icache.cpu_side::recvTimingReq: hasPC? 1, PC = 4221548, hasContextId? 1, contextID = 0, Vaddr: 4221504, Paddr: 27200
system.cpu.icache.cpu_side::recvTimingReq: hasPC? 1, PC = 4221565, hasContextId? 1, contextID = 0, Vaddr: 4221568, Paddr: 27264
system.cpu.dcache.cpu_side::recvTimingReq: hasPC? 1, PC = 4811066, hasContextId? 1, contextID = 0, MemCmd: ReadReq, Size: 8, CmdDir: 1
system.cpu.dcache.cpu_side::recvTimingReq: hasPC? 1, PC = 4811083, hasContextId? 1, contextID = 0, MemCmd: ReadReq, Size: 8, CmdDir: 1
system.cpu.dcache.cpu_side::recvTimingReq: hasPC? 1, PC = 4811088, hasContextId? 1, contextID = 0, MemCmd: ReadReq, Size: 8, CmdDir: 1
system.cpu.dcache.cpu_side::recvTimingReq: hasPC? 1, PC = 4811093, hasContextId? 1, contextID = 0, MemCmd: ReadReq, Size: 8, CmdDir: 1
system.cpu.icache.cpu_side::recvTimingReq: hasPC? 1, PC = 4221548, hasContextId? 1, contextID = 0, Vaddr: 4221504, Paddr: 27200
system.cpu.dcache.cpu_side::recvTimingReq: hasPC? 1, PC = 4811098, hasContextId? 1, contextID = 0, MemCmd: ReadReq, Size: 8, CmdDir: 1
system.cpu.dcache.cpu_side::recvTimingReq: hasPC? 1, PC = 4811103, hasContextId? 1, contextID = 0, MemCmd: ReadReq, Size: 8, CmdDir: 1
system.cpu.dcache.cpu_side::recvTimingReq: hasPC? 1, PC = 4811108, hasContextId? 1, contextID = 0, MemCmd: ReadReq, Size: 8, CmdDir: 1
system.cpu.dcache.cpu_side::recvTimingReq: hasPC? 1, PC = 4811117, hasContextId? 1, contextID = 0, MemCmd: ReadReq, Size: 8, CmdDir: 1
system.cpu.dcache.cpu_side::recvTimingReq: hasPC? 1, PC = 4221559, hasContextId? 1, contextID = 0, MemCmd: ReadReq, Size: 4, CmdDir: 1
system.cpu.icache.cpu_side::recvTimingReq: hasPC? 1, PC = 4221565, hasContextId? 1, contextID = 0, Vaddr: 4221568, Paddr: 27264
system.cpu.dcache.cpu_side::recvTimingReq: hasPC? 1, PC = 4221569, hasContextId? 1, contextID = 0, MemCmd: ReadReq, Size: 8, CmdDir: 1
system.cpu.dcache.cpu_side::recvTimingReq: hasPC? 1, PC = 4221571, hasContextId? 1, contextID = 0, MemCmd: ReadReq, Size: 8, CmdDir: 1
system.cpu.icache.cpu_side::recvTimingReq: hasPC? 1, PC = 4219888, hasContextId? 1, contextID = 0, Vaddr: 4219840, Paddr: 25536
system.cpu.icache.cpu_side::recvTimingReq: hasPC? 1, PC = 4219903, hasContextId? 1, contextID = 0, Vaddr: 4219904, Paddr: 25600
system.cpu.icache.cpu_side::recvTimingReq: hasPC? 1, PC = 4219968, hasContextId? 1, contextID = 0, Vaddr: 4219968, Paddr: 25664
system.cpu.icache.cpu_side::recvTimingReq: hasPC? 1, PC = 4889401, hasContextId? 1, contextID = 0, Vaddr: 4889344, Paddr: 695040
system.cpu.icache.cpu_side::recvTimingReq: hasPC? 1, PC = 4889407, hasContextId? 1, contextID = 0, Vaddr: 4889408, Paddr: 695104
system.cpu.icache.cpu_side::recvTimingReq: hasPC? 1, PC = 4889472, hasContextId? 1, contextID = 0, Vaddr: 4889472, Paddr: 695168
system.cpu.dcache.cpu_side::recvTimingReq: hasPC? 1, PC = 4889412, hasContextId? 1, contextID = 0, MemCmd: ReadReq, Size: 8, CmdDir: 1
system.cpu.icache.cpu_side::recvTimingReq: hasPC? 1, PC = 4889536, hasContextId? 1, contextID = 0, Vaddr: 4889536, Paddr: 695232
system.cpu.dcache.cpu_side::recvTimingReq: hasPC? 1, PC = 4889438, hasContextId? 1, contextID = 0, MemCmd: ReadReq, Size: 8, CmdDir: 1
system.cpu.icache.cpu_side::recvTimingReq: hasPC? 1, PC = 4889598, hasContextId? 1, contextID = 0, Vaddr: 4889600, Paddr: 695296
system.cpu.icache.cpu_side::recvTimingReq: hasPC? 1, PC = 4889472, hasContextId? 1, contextID = 0, Vaddr: 4889472, Paddr: 695168
system.cpu.icache.cpu_side::recvTimingReq: hasPC? 1, PC = 4889536, hasContextId? 1, contextID = 0, Vaddr: 4889536, Paddr: 695232
system.cpu.icache.cpu_side::recvTimingReq: hasPC? 1, PC = 4889598, hasContextId? 1, contextID = 0, Vaddr: 4889600, Paddr: 695296
system.cpu.dcache.cpu_side::recvTimingReq: hasPC? 1, PC = 4889544, hasContextId? 1, contextID = 0, MemCmd: ReadReq, Size: 8, CmdDir: 1
system.cpu.icache.cpu_side::recvTimingReq: hasPC? 1, PC = 4889541, hasContextId? 1, contextID = 0, Vaddr: 4889536, Paddr: 695232
system.cpu.icache.cpu_side::recvTimingReq: hasPC? 1, PC = 4889598, hasContextId? 1, contextID = 0, Vaddr: 4889600, Paddr: 695296
system.cpu.dcache.cpu_side::recvTimingReq: hasPC? 1, PC = 4889544, hasContextId? 1, contextID = 0, MemCmd: ReadReq, Size: 8, CmdDir: 1
system.cpu.dcache.cpu_side::recvTimingReq: hasPC? 1, PC = 4889570, hasContextId? 1, contextID = 0, MemCmd: ReadReq, Size: 1, CmdDir: 1
system.cpu.icache.cpu_side::recvTimingReq: hasPC? 1, PC = 4811066, hasContextId? 1, contextID = 0, Vaddr: 4811008, Paddr: 616704
system.cpu.icache.cpu_side::recvTimingReq: hasPC? 1, PC = 4811066, hasContextId? 1, contextID = 0, Vaddr: 4811072, Paddr: 616768
system.cpu.icache.cpu_side::recvTimingReq: hasPC? 1, PC = 4811066, hasContextId? 1, contextID = 0, Vaddr: 4811008, Paddr: 616704
system.cpu.icache.cpu_side::recvTimingReq: hasPC? 1, PC = 4811066, hasContextId? 1, contextID = 0, Vaddr: 4811072, Paddr: 616768
system.cpu.icache.cpu_side::recvTimingReq: hasPC? 1, PC = 4221466, hasContextId? 1, contextID = 0, Vaddr: 4221440, Paddr: 27136
system.cpu.dcache.cpu_side::recvTimingReq: hasPC? 1, PC = 4811066, hasContextId? 1, contextID = 0, MemCmd: ReadReq, Size: 8, CmdDir: 1
system.cpu.dcache.cpu_side::recvTimingReq: hasPC? 1, PC = 4811083, hasContextId? 1, contextID = 0, MemCmd: ReadReq, Size: 8, CmdDir: 1
system.cpu.dcache.cpu_side::recvTimingReq: hasPC? 1, PC = 4811088, hasContextId? 1, contextID = 0, MemCmd: ReadReq, Size: 8, CmdDir: 1
system.cpu.dcache.cpu_side::recvTimingReq: hasPC? 1, PC = 4811093, hasContextId? 1, contextID = 0, MemCmd: ReadReq, Size: 8, CmdDir: 1
system.cpu.dcache.cpu_side::recvTimingReq: hasPC? 1, PC = 4811098, hasContextId? 1, contextID = 0, MemCmd: ReadReq, Size: 8, CmdDir: 1
system.cpu.dcache.cpu_side::recvTimingReq: hasPC? 1, PC = 4811103, hasContextId? 1, contextID = 0, MemCmd: ReadReq, Size: 8, CmdDir: 1
system.cpu.dcache.cpu_side::recvTimingReq: hasPC? 1, PC = 4811108, hasContextId? 1, contextID = 0, MemCmd: ReadReq, Size: 8, CmdDir: 1
system.cpu.dcache.cpu_side::recvTimingReq: hasPC? 1, PC = 4811117, hasContextId? 1, contextID = 0, MemCmd: ReadReq, Size: 8, CmdDir: 1
system.cpu.icache.cpu_side::recvTimingReq: hasPC? 1, PC = 4221500, hasContextId? 1, contextID = 0, Vaddr: 4221504, Paddr: 27200
system.cpu.dcache.cpu_side::recvTimingReq: hasPC? 1, PC = 4811066, hasContextId? 1, contextID = 0, MemCmd: ReadReq, Size: 8, CmdDir: 1
system.cpu.dcache.cpu_side::recvTimingReq: hasPC? 1, PC = 4811083, hasContextId? 1, contextID = 0, MemCmd: ReadReq, Size: 8, CmdDir: 1
system.cpu.dcache.cpu_side::recvTimingReq: hasPC? 1, PC = 4811088, hasContextId? 1, contextID = 0, MemCmd: ReadReq, Size: 8, CmdDir: 1
system.cpu.dcache.cpu_side::recvTimingReq: hasPC? 1, PC = 4811093, hasContextId? 1, contextID = 0, MemCmd: ReadReq, Size: 8, CmdDir: 1
system.cpu.dcache.cpu_side::recvTimingReq: hasPC? 1, PC = 4811098, hasContextId? 1, contextID = 0, MemCmd: ReadReq, Size: 8, CmdDir: 1
system.cpu.dcache.cpu_side::recvTimingReq: hasPC? 1, PC = 4811103, hasContextId? 1, contextID = 0, MemCmd: ReadReq, Size: 8, CmdDir: 1
system.cpu.dcache.cpu_side::recvTimingReq: hasPC? 1, PC = 4811108, hasContextId? 1, contextID = 0, MemCmd: ReadReq, Size: 8, CmdDir: 1
system.cpu.icache.cpu_side::recvTimingReq: hasPC? 1, PC = 4811120, hasContextId? 1, contextID = 0, Vaddr: 4811072, Paddr: 616768
system.cpu.icache.cpu_side::recvTimingReq: hasPC? 1, PC = 4811136, hasContextId? 1, contextID = 0, Vaddr: 4811136, Paddr: 616832
system.cpu.icache.cpu_side::recvTimingReq: hasPC? 1, PC = 4811198, hasContextId? 1, contextID = 0, Vaddr: 4811200, Paddr: 616896
system.cpu.dcache.cpu_side::recvTimingReq: hasPC? 1, PC = 4811120, hasContextId? 1, contextID = 0, MemCmd: ReadReq, Size: 1, CmdDir: 1
system.cpu.dcache.cpu_side::recvTimingReq: hasPC? 1, PC = 4811126, hasContextId? 1, contextID = 0, MemCmd: ReadReq, Size: 1, CmdDir: 1
system.cpu.dcache.cpu_side::recvTimingReq: hasPC? 1, PC = 4811133, hasContextId? 1, contextID = 0, MemCmd: ReadReq, Size: 8, CmdDir: 1
system.cpu.dcache.cpu_side::recvTimingReq: hasPC? 1, PC = 4811136, hasContextId? 1, contextID = 0, MemCmd: ReadReq, Size: 2, CmdDir: 1
system.cpu.icache.cpu_side::recvTimingReq: hasPC? 1, PC = 4811081, hasContextId? 1, contextID = 0, Vaddr: 4811072, Paddr: 616768
system.cpu.icache.cpu_side::recvTimingReq: hasPC? 1, PC = 4811066, hasContextId? 1, contextID = 0, Vaddr: 4811008, Paddr: 616704
system.cpu.icache.cpu_side::recvTimingReq: hasPC? 1, PC = 4811066, hasContextId? 1, contextID = 0, Vaddr: 4811072, Paddr: 616768
system.cpu.icache.cpu_side::recvTimingReq: hasPC? 1, PC = 4811136, hasContextId? 1, contextID = 0, Vaddr: 4811136, Paddr: 616832
system.cpu.dcache.cpu_side::recvTimingReq: hasPC? 1, PC = 4811083, hasContextId? 1, contextID = 0, MemCmd: ReadReq, Size: 8, CmdDir: 1
system.cpu.dcache.cpu_side::recvTimingReq: hasPC? 1, PC = 4811088, hasContextId? 1, contextID = 0, MemCmd: ReadReq, Size: 8, CmdDir: 1
system.cpu.dcache.cpu_side::recvTimingReq: hasPC? 1, PC = 4811093, hasContextId? 1, contextID = 0, MemCmd: ReadReq, Size: 8, CmdDir: 1
system.cpu.dcache.cpu_side::recvTimingReq: hasPC? 1, PC = 4811098, hasContextId? 1, contextID = 0, MemCmd: ReadReq, Size: 8, CmdDir: 1
system.cpu.dcache.cpu_side::recvTimingReq: hasPC? 1, PC = 4811103, hasContextId? 1, contextID = 0, MemCmd: ReadReq, Size: 8, CmdDir: 1
system.cpu.dcache.cpu_side::recvTimingReq: hasPC? 1, PC = 4811108, hasContextId? 1, contextID = 0, MemCmd: ReadReq, Size: 8, CmdDir: 1
system.cpu.icache.cpu_side::recvTimingReq: hasPC? 1, PC = 4811081, hasContextId? 1, contextID = 0, Vaddr: 4811072, Paddr: 616768
system.cpu.dcache.cpu_side::recvTimingReq: hasPC? 1, PC = 4811117, hasContextId? 1, contextID = 0, MemCmd: ReadReq, Size: 8, CmdDir: 1
system.cpu.dcache.cpu_side::recvTimingReq: hasPC? 1, PC = 4811066, hasContextId? 1, contextID = 0, MemCmd: ReadReq, Size: 8, CmdDir: 1
system.cpu.icache.cpu_side::recvTimingReq: hasPC? 1, PC = 4221466, hasContextId? 1, contextID = 0, Vaddr: 4221440, Paddr: 27136
system.cpu.dcache.cpu_side::recvTimingReq: hasPC? 1, PC = 4811133, hasContextId? 1, contextID = 0, MemCmd: ReadReq, Size: 8, CmdDir: 1
system.cpu.icache.cpu_side::recvTimingReq: hasPC? 1, PC = 4219888, hasContextId? 1, contextID = 0, Vaddr: 4219840, Paddr: 25536
system.cpu.icache.cpu_side::recvTimingReq: hasPC? 1, PC = 4219903, hasContextId? 1, contextID = 0, Vaddr: 4219904, Paddr: 25600
system.cpu.icache.cpu_side::recvTimingReq: hasPC? 1, PC = 4219968, hasContextId? 1, contextID = 0, Vaddr: 4219968, Paddr: 25664
system.cpu.icache.cpu_side::recvTimingReq: hasPC? 1, PC = 4220158, hasContextId? 1, contextID = 0, Vaddr: 4220096, Paddr: 25792
system.cpu.icache.cpu_side::recvTimingReq: hasPC? 1, PC = 4220158, hasContextId? 1, contextID = 0, Vaddr: 4220160, Paddr: 25856
system.cpu.icache.cpu_side::recvTimingReq: hasPC? 1, PC = 4221466, hasContextId? 1, contextID = 0, Vaddr: 4221440, Paddr: 27136
system.cpu.dcache.cpu_side::recvTimingReq: hasPC? 1, PC = 4220167, hasContextId? 1, contextID = 0, MemCmd: ReadReq, Size: 8, CmdDir: 1
system.cpu.dcache.cpu_side::recvTimingReq: hasPC? 1, PC = 4220174, hasContextId? 1, contextID = 0, MemCmd: ReadReq, Size: 8, CmdDir: 1
system.cpu.icache.cpu_side::recvTimingReq: hasPC? 1, PC = 4221500, hasContextId? 1, contextID = 0, Vaddr: 4221504, Paddr: 27200
system.cpu.dcache.cpu_side::recvTimingReq: hasPC? 1, PC = 4220191, hasContextId? 1, contextID = 0, MemCmd: ReadReq, Size: 8, CmdDir: 1
system.cpu.icache.cpu_side::recvTimingReq: hasPC? 1, PC = 4220074, hasContextId? 1, contextID = 0, Vaddr: 4220032, Paddr: 25728
system.cpu.dcache.cpu_side::recvTimingReq: hasPC? 1, PC = 4220158, hasContextId? 1, contextID = 0, MemCmd: WriteReq, Size: 1, CmdDir: 1
system.cpu.icache.cpu_side::recvTimingReq: hasPC? 1, PC = 4220094, hasContextId? 1, contextID = 0, Vaddr: 4220096, Paddr: 25792
system.cpu.icache.cpu_side::recvTimingReq: hasPC? 1, PC = 4221466, hasContextId? 1, contextID = 0, Vaddr: 4221440, Paddr: 27136
system.cpu.dcache.cpu_side::recvTimingReq: hasPC? 1, PC = 4220074, hasContextId? 1, contextID = 0, MemCmd: ReadReq, Size: 8, CmdDir: 1
system.cpu.dcache.cpu_side::recvTimingReq: hasPC? 1, PC = 4220081, hasContextId? 1, contextID = 0, MemCmd: ReadReq, Size: 8, CmdDir: 1
system.cpu.icache.cpu_side::recvTimingReq: hasPC? 1, PC = 4221500, hasContextId? 1, contextID = 0, Vaddr: 4221504, Paddr: 27200
system.cpu.dcache.cpu_side::recvTimingReq: hasPC? 1, PC = 4220098, hasContextId? 1, contextID = 0, MemCmd: ReadReq, Size: 8, CmdDir: 1
system.cpu.dcache.cpu_side::recvTimingReq: hasPC? 1, PC = 4220099, hasContextId? 1, contextID = 0, MemCmd: ReadReq, Size: 8, CmdDir: 1
system.cpu.dcache.cpu_side::recvTimingReq: hasPC? 1, PC = 4220101, hasContextId? 1, contextID = 0, MemCmd: ReadReq, Size: 8, CmdDir: 1
system.cpu.dcache.cpu_side::recvTimingReq: hasPC? 1, PC = 4220103, hasContextId? 1, contextID = 0, MemCmd: ReadReq, Size: 8, CmdDir: 1
system.cpu.dcache.cpu_side::recvTimingReq: hasPC? 1, PC = 4220104, hasContextId? 1, contextID = 0, MemCmd: ReadReq, Size: 8, CmdDir: 1
system.cpu.dcache.cpu_side::recvTimingReq: hasPC? 1, PC = 4221491, hasContextId? 1, contextID = 0, MemCmd: ReadReq, Size: 4, CmdDir: 1
system.cpu.icache.cpu_side::recvTimingReq: hasPC? 1, PC = 4221565, hasContextId? 1, contextID = 0, Vaddr: 4221568, Paddr: 27264
system.cpu.dcache.cpu_side::recvTimingReq: hasPC? 1, PC = 4221477, hasContextId? 1, contextID = 0, MemCmd: ReadReq, Size: 1, CmdDir: 1
system.cpu.dcache.cpu_side::recvTimingReq: hasPC? 1, PC = 4221500, hasContextId? 1, contextID = 0, MemCmd: ReadReq, Size: 8, CmdDir: 1
system.cpu.dcache.cpu_side::recvTimingReq: hasPC? 1, PC = 4221507, hasContextId? 1, contextID = 0, MemCmd: ReadReq, Size: 4, CmdDir: 1
system.cpu.dcache.cpu_side::recvTimingReq: hasPC? 1, PC = 4221515, hasContextId? 1, contextID = 0, MemCmd: ReadReq, Size: 8, CmdDir: 1
system.cpu.dcache.cpu_side::recvTimingReq: hasPC? 1, PC = 4221521, hasContextId? 1, contextID = 0, MemCmd: ReadReq, Size: 4, CmdDir: 1
system.cpu.icache.cpu_side::recvTimingReq: hasPC? 1, PC = 4214975, hasContextId? 1, contextID = 0, Vaddr: 4214912, Paddr: 20608
system.cpu.icache.cpu_side::recvTimingReq: hasPC? 1, PC = 4214975, hasContextId? 1, contextID = 0, Vaddr: 4214976, Paddr: 20672
system.cpu.icache.cpu_side::recvTimingReq: hasPC? 1, PC = 4215038, hasContextId? 1, contextID = 0, Vaddr: 4215040, Paddr: 20736
system.cpu.dcache.cpu_side::recvTimingReq: hasPC? 1, PC = 4214990, hasContextId? 1, contextID = 0, MemCmd: WriteReq, Size: 4, CmdDir: 1
system.cpu.icache.cpu_side::recvTimingReq: hasPC? 1, PC = 4810256, hasContextId? 1, contextID = 0, Vaddr: 4810240, Paddr: 615936
system.cpu.dcache.cpu_side::recvTimingReq: hasPC? 1, PC = 4215000, hasContextId? 1, contextID = 0, MemCmd: WriteReq, Size: 8, CmdDir: 1
system.cpu.dcache.cpu_side::recvTimingReq: hasPC? 1, PC = 4215011, hasContextId? 1, contextID = 0, MemCmd: WriteReq, Size: 8, CmdDir: 1
system.cpu.dcache.cpu_side::recvTimingReq: hasPC? 1, PC = 4215022, hasContextId? 1, contextID = 0, MemCmd: WriteReq, Size: 8, CmdDir: 1
system.cpu.icache.cpu_side::recvTimingReq: hasPC? 1, PC = 4221548, hasContextId? 1, contextID = 0, Vaddr: 4221504, Paddr: 27200
system.cpu.icache.cpu_side::recvTimingReq: hasPC? 1, PC = 4221565, hasContextId? 1, contextID = 0, Vaddr: 4221568, Paddr: 27264
system.cpu.icache.cpu_side::recvTimingReq: hasPC? 1, PC = 4221548, hasContextId? 1, contextID = 0, Vaddr: 4221504, Paddr: 27200
system.cpu.icache.cpu_side::recvTimingReq: hasPC? 1, PC = 4221565, hasContextId? 1, contextID = 0, Vaddr: 4221568, Paddr: 27264
