gem5 Simulator System.  http://gem5.org
gem5 is copyrighted software; use the --copyright option for details.

gem5 compiled Apr 11 2017 09:14:21
gem5 started Apr 11 2017 10:12:53
gem5 executing on shai.cse.psu.edu, pid 20416
command line: /home/mdl/mjl5868/GEM5/Mem2D/New_Version/2dmem_v0_1_addaddrbit/V0_1_AddAddrBit/gem5/build/X86/gem5.fast --redirect-stdout --stdout-file=xbla_test_Apr11_2017.gemout --redirect-stderr --stderr-file=xbla_test_Apr11_2017.gemerr --stats-file=xbla_test_Apr11_2017.stats /home/mdl/mjl5868/GEM5/Mem2D/New_Version/2dmem_v0_1_addaddrbit/V0_1_AddAddrBit/gem5/configs/example/se.py --output=xbla_test_Apr11_2017.appout --errout=xbla_test_Apr11_2017.apperr -c /home/mdl/mjl5868/Projects/2DMemBenchmarkSearch/lapack-3.7.0/BLAS/xblat3s --caches --l2cache --cpu-type=detailed

Global frequency set at 1000000000000 ticks per second
**** REAL SIMULATION ****
info: Entering event queue @ 0.  Starting simulation...
system.cpu.icache.cpu_side::recvTimingReq: hasPC? 1, PC = 225217350400, hasContextId? 1, contextID = 0, Vaddr: 225217350400, Paddr: 105216
system.cpu.icache.cpu_side::recvTimingReq: hasPC? 1, PC = 225217350400, hasContextId? 1, contextID = 0, Vaddr: 225217350400, Paddr: 105216
system.cpu.icache.cpu_side::recvTimingReq: hasPC? 1, PC = 225217350458, hasContextId? 1, contextID = 0, Vaddr: 225217350464, Paddr: 105280
system.cpu.dcache.cpu_side::recvTimingReq: hasPC? 1, PC = 225217350411, hasContextId? 1, contextID = 0, MemCmd: ReadReq, Size: 4, CmdDir: 1
system.cpu.icache.cpu_side::recvTimingReq: hasPC? 1, PC = 225217351984, hasContextId? 1, contextID = 0, Vaddr: 225217351936, Paddr: 106752
system.cpu.dcache.cpu_side::recvTimingReq: hasPC? 1, PC = 225217350403, hasContextId? 1, contextID = 0, MemCmd: WriteReq, Size: 8, CmdDir: 1
system.cpu.icache.cpu_side::recvTimingReq: hasPC? 1, PC = 225217352000, hasContextId? 1, contextID = 0, Vaddr: 225217352000, Paddr: 106816
system.cpu.dcache.cpu_side::recvTimingReq: hasPC? 1, PC = 225217351984, hasContextId? 1, contextID = 0, MemCmd: WriteReq, Size: 8, CmdDir: 1
system.cpu.dcache.cpu_side::recvTimingReq: hasPC? 1, PC = 225217351988, hasContextId? 1, contextID = 0, MemCmd: WriteReq, Size: 8, CmdDir: 1
system.cpu.dcache.cpu_side::recvTimingReq: hasPC? 1, PC = 225217351990, hasContextId? 1, contextID = 0, MemCmd: WriteReq, Size: 8, CmdDir: 1
system.cpu.dcache.cpu_side::recvTimingReq: hasPC? 1, PC = 225217351992, hasContextId? 1, contextID = 0, MemCmd: WriteReq, Size: 8, CmdDir: 1
system.cpu.dcache.cpu_side::recvTimingReq: hasPC? 1, PC = 225217351994, hasContextId? 1, contextID = 0, MemCmd: WriteReq, Size: 8, CmdDir: 1
system.cpu.dcache.cpu_side::recvTimingReq: hasPC? 1, PC = 225217351996, hasContextId? 1, contextID = 0, MemCmd: WriteReq, Size: 8, CmdDir: 1
system.cpu.icache.cpu_side::recvTimingReq: hasPC? 1, PC = 225217352063, hasContextId? 1, contextID = 0, Vaddr: 225217352064, Paddr: 106880
system.cpu.dcache.cpu_side::recvTimingReq: hasPC? 1, PC = 225217352022, hasContextId? 1, contextID = 0, MemCmd: ReadReq, Size: 8, CmdDir: 1
system.cpu.dcache.cpu_side::recvTimingReq: hasPC? 1, PC = 225217352039, hasContextId? 1, contextID = 0, MemCmd: ReadReq, Size: 8, CmdDir: 1
system.cpu.icache.cpu_side::recvTimingReq: hasPC? 1, PC = 225217352127, hasContextId? 1, contextID = 0, Vaddr: 225217352128, Paddr: 106944
system.cpu.icache.cpu_side::recvTimingReq: hasPC? 1, PC = 225217352132, hasContextId? 1, contextID = 0, Vaddr: 225217352128, Paddr: 106944
system.cpu.dcache.cpu_side::recvTimingReq: hasPC? 1, PC = 225217352029, hasContextId? 1, contextID = 0, MemCmd: WriteReq, Size: 8, CmdDir: 1
system.cpu.dcache.cpu_side::recvTimingReq: hasPC? 1, PC = 225217352053, hasContextId? 1, contextID = 0, MemCmd: ReadReq, Size: 8, CmdDir: 1
system.cpu.dcache.cpu_side::recvTimingReq: hasPC? 1, PC = 225217352046, hasContextId? 1, contextID = 0, MemCmd: WriteReq, Size: 8, CmdDir: 1
system.cpu.icache.cpu_side::recvTimingReq: hasPC? 1, PC = 225217352192, hasContextId? 1, contextID = 0, Vaddr: 225217352192, Paddr: 107008
system.cpu.dcache.cpu_side::recvTimingReq: hasPC? 1, PC = 225217352168, hasContextId? 1, contextID = 0, MemCmd: ReadReq, Size: 8, CmdDir: 1
system.cpu.dcache.cpu_side::recvTimingReq: hasPC? 1, PC = 225217352176, hasContextId? 1, contextID = 0, MemCmd: ReadReq, Size: 8, CmdDir: 1
system.cpu.icache.cpu_side::recvTimingReq: hasPC? 1, PC = 225217352112, hasContextId? 1, contextID = 0, Vaddr: 225217352064, Paddr: 106880
system.cpu.icache.cpu_side::recvTimingReq: hasPC? 1, PC = 225217352127, hasContextId? 1, contextID = 0, Vaddr: 225217352128, Paddr: 106944
system.cpu.icache.cpu_side::recvTimingReq: hasPC? 1, PC = 225217352192, hasContextId? 1, contextID = 0, Vaddr: 225217352192, Paddr: 107008
system.cpu.dcache.cpu_side::recvTimingReq: hasPC? 1, PC = 225217352124, hasContextId? 1, contextID = 0, MemCmd: ReadReq, Size: 8, CmdDir: 1
system.cpu.dcache.cpu_side::recvTimingReq: hasPC? 1, PC = 225217352168, hasContextId? 1, contextID = 0, MemCmd: ReadReq, Size: 8, CmdDir: 1
system.cpu.dcache.cpu_side::recvTimingReq: hasPC? 1, PC = 225217352176, hasContextId? 1, contextID = 0, MemCmd: ReadReq, Size: 8, CmdDir: 1
system.cpu.dcache.cpu_side::recvTimingReq: hasPC? 1, PC = 225217352056, hasContextId? 1, contextID = 0, MemCmd: WriteReq, Size: 8, CmdDir: 1
system.cpu.dcache.cpu_side::recvTimingReq: hasPC? 1, PC = 225217352112, hasContextId? 1, contextID = 0, MemCmd: WriteReq, Size: 8, CmdDir: 1
system.cpu.icache.cpu_side::recvTimingReq: hasPC? 1, PC = 225217352256, hasContextId? 1, contextID = 0, Vaddr: 225217352256, Paddr: 107072
system.cpu.dcache.cpu_side::recvTimingReq: hasPC? 1, PC = 225217352192, hasContextId? 1, contextID = 0, MemCmd: ReadReq, Size: 8, CmdDir: 1
system.cpu.dcache.cpu_side::recvTimingReq: hasPC? 1, PC = 225217352208, hasContextId? 1, contextID = 0, MemCmd: ReadReq, Size: 8, CmdDir: 1
system.cpu.dcache.cpu_side::recvTimingReq: hasPC? 1, PC = 225217352224, hasContextId? 1, contextID = 0, MemCmd: ReadReq, Size: 8, CmdDir: 1
system.cpu.dcache.cpu_side::recvTimingReq: hasPC? 1, PC = 225217352240, hasContextId? 1, contextID = 0, MemCmd: ReadReq, Size: 8, CmdDir: 1
system.cpu.icache.cpu_side::recvTimingReq: hasPC? 1, PC = 225217352112, hasContextId? 1, contextID = 0, Vaddr: 225217352064, Paddr: 106880
system.cpu.icache.cpu_side::recvTimingReq: hasPC? 1, PC = 225217352127, hasContextId? 1, contextID = 0, Vaddr: 225217352128, Paddr: 106944
system.cpu.icache.cpu_side::recvTimingReq: hasPC? 1, PC = 225217352192, hasContextId? 1, contextID = 0, Vaddr: 225217352192, Paddr: 107008
system.cpu.icache.cpu_side::recvTimingReq: hasPC? 1, PC = 225217352256, hasContextId? 1, contextID = 0, Vaddr: 225217352256, Paddr: 107072
system.cpu.dcache.cpu_side::recvTimingReq: hasPC? 1, PC = 225217352124, hasContextId? 1, contextID = 0, MemCmd: ReadReq, Size: 8, CmdDir: 1
system.cpu.dcache.cpu_side::recvTimingReq: hasPC? 1, PC = 225217352168, hasContextId? 1, contextID = 0, MemCmd: ReadReq, Size: 8, CmdDir: 1
system.cpu.dcache.cpu_side::recvTimingReq: hasPC? 1, PC = 225217352176, hasContextId? 1, contextID = 0, MemCmd: ReadReq, Size: 8, CmdDir: 1
system.cpu.dcache.cpu_side::recvTimingReq: hasPC? 1, PC = 225217352208, hasContextId? 1, contextID = 0, MemCmd: ReadReq, Size: 8, CmdDir: 1
system.cpu.icache.cpu_side::recvTimingReq: hasPC? 1, PC = 225217352912, hasContextId? 1, contextID = 0, Vaddr: 225217352896, Paddr: 107712
system.cpu.dcache.cpu_side::recvTimingReq: hasPC? 1, PC = 225217352112, hasContextId? 1, contextID = 0, MemCmd: WriteReq, Size: 8, CmdDir: 1
system.cpu.icache.cpu_side::recvTimingReq: hasPC? 1, PC = 225217352959, hasContextId? 1, contextID = 0, Vaddr: 225217352960, Paddr: 107776
system.cpu.icache.cpu_side::recvTimingReq: hasPC? 1, PC = 225217352944, hasContextId? 1, contextID = 0, Vaddr: 225217352896, Paddr: 107712
system.cpu.icache.cpu_side::recvTimingReq: hasPC? 1, PC = 225217352959, hasContextId? 1, contextID = 0, Vaddr: 225217352960, Paddr: 107776
system.cpu.icache.cpu_side::recvTimingReq: hasPC? 1, PC = 225217352976, hasContextId? 1, contextID = 0, Vaddr: 225217352960, Paddr: 107776
system.cpu.icache.cpu_side::recvTimingReq: hasPC? 1, PC = 225217353022, hasContextId? 1, contextID = 0, Vaddr: 225217353024, Paddr: 107840
system.cpu.dcache.cpu_side::recvTimingReq: hasPC? 1, PC = 225217353008, hasContextId? 1, contextID = 0, MemCmd: ReadReq, Size: 8, CmdDir: 1
system.cpu.icache.cpu_side::recvTimingReq: hasPC? 1, PC = 225217352120, hasContextId? 1, contextID = 0, Vaddr: 225217352064, Paddr: 106880
system.cpu.icache.cpu_side::recvTimingReq: hasPC? 1, PC = 225217352127, hasContextId? 1, contextID = 0, Vaddr: 225217352128, Paddr: 106944
system.cpu.dcache.cpu_side::recvTimingReq: hasPC? 1, PC = 225217352998, hasContextId? 1, contextID = 0, MemCmd: WriteReq, Size: 8, CmdDir: 1
system.cpu.icache.cpu_side::recvTimingReq: hasPC? 1, PC = 225217352192, hasContextId? 1, contextID = 0, Vaddr: 225217352192, Paddr: 107008
system.cpu.dcache.cpu_side::recvTimingReq: hasPC? 1, PC = 225217352124, hasContextId? 1, contextID = 0, MemCmd: ReadReq, Size: 8, CmdDir: 1
system.cpu.icache.cpu_side::recvTimingReq: hasPC? 1, PC = 225217352256, hasContextId? 1, contextID = 0, Vaddr: 225217352256, Paddr: 107072
system.cpu.dcache.cpu_side::recvTimingReq: hasPC? 1, PC = 225217352168, hasContextId? 1, contextID = 0, MemCmd: ReadReq, Size: 8, CmdDir: 1
system.cpu.dcache.cpu_side::recvTimingReq: hasPC? 1, PC = 225217352176, hasContextId? 1, contextID = 0, MemCmd: ReadReq, Size: 8, CmdDir: 1
system.cpu.icache.cpu_side::recvTimingReq: hasPC? 1, PC = 225217352112, hasContextId? 1, contextID = 0, Vaddr: 225217352064, Paddr: 106880
system.cpu.icache.cpu_side::recvTimingReq: hasPC? 1, PC = 225217352127, hasContextId? 1, contextID = 0, Vaddr: 225217352128, Paddr: 106944
system.cpu.icache.cpu_side::recvTimingReq: hasPC? 1, PC = 225217352192, hasContextId? 1, contextID = 0, Vaddr: 225217352192, Paddr: 107008
system.cpu.dcache.cpu_side::recvTimingReq: hasPC? 1, PC = 225217352124, hasContextId? 1, contextID = 0, MemCmd: ReadReq, Size: 8, CmdDir: 1
system.cpu.icache.cpu_side::recvTimingReq: hasPC? 1, PC = 225217352256, hasContextId? 1, contextID = 0, Vaddr: 225217352256, Paddr: 107072
system.cpu.dcache.cpu_side::recvTimingReq: hasPC? 1, PC = 225217352168, hasContextId? 1, contextID = 0, MemCmd: ReadReq, Size: 8, CmdDir: 1
system.cpu.dcache.cpu_side::recvTimingReq: hasPC? 1, PC = 225217352176, hasContextId? 1, contextID = 0, MemCmd: ReadReq, Size: 8, CmdDir: 1
system.cpu.icache.cpu_side::recvTimingReq: hasPC? 1, PC = 225217352112, hasContextId? 1, contextID = 0, Vaddr: 225217352064, Paddr: 106880
system.cpu.icache.cpu_side::recvTimingReq: hasPC? 1, PC = 225217352127, hasContextId? 1, contextID = 0, Vaddr: 225217352128, Paddr: 106944
system.cpu.icache.cpu_side::recvTimingReq: hasPC? 1, PC = 225217352192, hasContextId? 1, contextID = 0, Vaddr: 225217352192, Paddr: 107008
system.cpu.icache.cpu_side::recvTimingReq: hasPC? 1, PC = 225217352256, hasContextId? 1, contextID = 0, Vaddr: 225217352256, Paddr: 107072
system.cpu.dcache.cpu_side::recvTimingReq: hasPC? 1, PC = 225217352124, hasContextId? 1, contextID = 0, MemCmd: ReadReq, Size: 8, CmdDir: 1
system.cpu.dcache.cpu_side::recvTimingReq: hasPC? 1, PC = 225217352168, hasContextId? 1, contextID = 0, MemCmd: ReadReq, Size: 8, CmdDir: 1
system.cpu.dcache.cpu_side::recvTimingReq: hasPC? 1, PC = 225217352176, hasContextId? 1, contextID = 0, MemCmd: ReadReq, Size: 8, CmdDir: 1
system.cpu.dcache.cpu_side::recvTimingReq: hasPC? 1, PC = 225217352192, hasContextId? 1, contextID = 0, MemCmd: ReadReq, Size: 8, CmdDir: 1
system.cpu.icache.cpu_side::recvTimingReq: hasPC? 1, PC = 225217352320, hasContextId? 1, contextID = 0, Vaddr: 225217352320, Paddr: 107136
system.cpu.dcache.cpu_side::recvTimingReq: hasPC? 1, PC = 225217352208, hasContextId? 1, contextID = 0, MemCmd: ReadReq, Size: 8, CmdDir: 1
system.cpu.dcache.cpu_side::recvTimingReq: hasPC? 1, PC = 225217352204, hasContextId? 1, contextID = 0, MemCmd: ReadReq, Size: 8, CmdDir: 1
system.cpu.dcache.cpu_side::recvTimingReq: hasPC? 1, PC = 225217352236, hasContextId? 1, contextID = 0, MemCmd: ReadReq, Size: 8, CmdDir: 1
system.cpu.dcache.cpu_side::recvTimingReq: hasPC? 1, PC = 225217352256, hasContextId? 1, contextID = 0, MemCmd: ReadReq, Size: 8, CmdDir: 1
system.cpu.dcache.cpu_side::recvTimingReq: hasPC? 1, PC = 225217352252, hasContextId? 1, contextID = 0, MemCmd: ReadReq, Size: 8, CmdDir: 1
system.cpu.dcache.cpu_side::recvTimingReq: hasPC? 1, PC = 225217352272, hasContextId? 1, contextID = 0, MemCmd: ReadReq, Size: 8, CmdDir: 1
system.cpu.dcache.cpu_side::recvTimingReq: hasPC? 1, PC = 225217352288, hasContextId? 1, contextID = 0, MemCmd: ReadReq, Size: 8, CmdDir: 1
system.cpu.dcache.cpu_side::recvTimingReq: hasPC? 1, PC = 225217352304, hasContextId? 1, contextID = 0, MemCmd: ReadReq, Size: 8, CmdDir: 1
system.cpu.icache.cpu_side::recvTimingReq: hasPC? 1, PC = 225217352224, hasContextId? 1, contextID = 0, Vaddr: 225217352192, Paddr: 107008
system.cpu.icache.cpu_side::recvTimingReq: hasPC? 1, PC = 225217352256, hasContextId? 1, contextID = 0, Vaddr: 225217352256, Paddr: 107072
system.cpu.icache.cpu_side::recvTimingReq: hasPC? 1, PC = 225217352320, hasContextId? 1, contextID = 0, Vaddr: 225217352320, Paddr: 107136
system.cpu.dcache.cpu_side::recvTimingReq: hasPC? 1, PC = 225217352236, hasContextId? 1, contextID = 0, MemCmd: ReadReq, Size: 8, CmdDir: 1
system.cpu.dcache.cpu_side::recvTimingReq: hasPC? 1, PC = 225217352256, hasContextId? 1, contextID = 0, MemCmd: ReadReq, Size: 8, CmdDir: 1
system.cpu.dcache.cpu_side::recvTimingReq: hasPC? 1, PC = 225217352252, hasContextId? 1, contextID = 0, MemCmd: ReadReq, Size: 8, CmdDir: 1
system.cpu.dcache.cpu_side::recvTimingReq: hasPC? 1, PC = 225217352272, hasContextId? 1, contextID = 0, MemCmd: ReadReq, Size: 8, CmdDir: 1
system.cpu.dcache.cpu_side::recvTimingReq: hasPC? 1, PC = 225217352288, hasContextId? 1, contextID = 0, MemCmd: ReadReq, Size: 8, CmdDir: 1
system.cpu.dcache.cpu_side::recvTimingReq: hasPC? 1, PC = 225217352304, hasContextId? 1, contextID = 0, MemCmd: ReadReq, Size: 8, CmdDir: 1
system.cpu.dcache.cpu_side::recvTimingReq: hasPC? 1, PC = 225217352236, hasContextId? 1, contextID = 0, MemCmd: ReadReq, Size: 8, CmdDir: 1
system.cpu.dcache.cpu_side::recvTimingReq: hasPC? 1, PC = 225217352252, hasContextId? 1, contextID = 0, MemCmd: ReadReq, Size: 8, CmdDir: 1
system.cpu.dcache.cpu_side::recvTimingReq: hasPC? 1, PC = 225217352256, hasContextId? 1, contextID = 0, MemCmd: ReadReq, Size: 8, CmdDir: 1
system.cpu.dcache.cpu_side::recvTimingReq: hasPC? 1, PC = 225217352272, hasContextId? 1, contextID = 0, MemCmd: ReadReq, Size: 8, CmdDir: 1
system.cpu.dcache.cpu_side::recvTimingReq: hasPC? 1, PC = 225217352288, hasContextId? 1, contextID = 0, MemCmd: ReadReq, Size: 8, CmdDir: 1
system.cpu.dcache.cpu_side::recvTimingReq: hasPC? 1, PC = 225217352304, hasContextId? 1, contextID = 0, MemCmd: ReadReq, Size: 8, CmdDir: 1
system.cpu.icache.cpu_side::recvTimingReq: hasPC? 1, PC = 225217352272, hasContextId? 1, contextID = 0, Vaddr: 225217352256, Paddr: 107072
system.cpu.dcache.cpu_side::recvTimingReq: hasPC? 1, PC = 225217352112, hasContextId? 1, contextID = 0, MemCmd: WriteReq, Size: 8, CmdDir: 1
system.cpu.dcache.cpu_side::recvTimingReq: hasPC? 1, PC = 225217352112, hasContextId? 1, contextID = 0, MemCmd: WriteReq, Size: 8, CmdDir: 1
system.cpu.icache.cpu_side::recvTimingReq: hasPC? 1, PC = 225217352320, hasContextId? 1, contextID = 0, Vaddr: 225217352320, Paddr: 107136
system.cpu.dcache.cpu_side::recvTimingReq: hasPC? 1, PC = 225217352272, hasContextId? 1, contextID = 0, MemCmd: ReadReq, Size: 8, CmdDir: 1
system.cpu.dcache.cpu_side::recvTimingReq: hasPC? 1, PC = 225217352288, hasContextId? 1, contextID = 0, MemCmd: ReadReq, Size: 8, CmdDir: 1
system.cpu.dcache.cpu_side::recvTimingReq: hasPC? 1, PC = 225217352304, hasContextId? 1, contextID = 0, MemCmd: ReadReq, Size: 8, CmdDir: 1
system.cpu.icache.cpu_side::recvTimingReq: hasPC? 1, PC = 225217352112, hasContextId? 1, contextID = 0, Vaddr: 225217352064, Paddr: 106880
system.cpu.icache.cpu_side::recvTimingReq: hasPC? 1, PC = 225217352127, hasContextId? 1, contextID = 0, Vaddr: 225217352128, Paddr: 106944
system.cpu.icache.cpu_side::recvTimingReq: hasPC? 1, PC = 225217352192, hasContextId? 1, contextID = 0, Vaddr: 225217352192, Paddr: 107008
system.cpu.icache.cpu_side::recvTimingReq: hasPC? 1, PC = 225217352256, hasContextId? 1, contextID = 0, Vaddr: 225217352256, Paddr: 107072
system.cpu.dcache.cpu_side::recvTimingReq: hasPC? 1, PC = 225217352124, hasContextId? 1, contextID = 0, MemCmd: ReadReq, Size: 8, CmdDir: 1
system.cpu.dcache.cpu_side::recvTimingReq: hasPC? 1, PC = 225217352112, hasContextId? 1, contextID = 0, MemCmd: WriteReq, Size: 8, CmdDir: 1
system.cpu.dcache.cpu_side::recvTimingReq: hasPC? 1, PC = 225217352168, hasContextId? 1, contextID = 0, MemCmd: ReadReq, Size: 8, CmdDir: 1
system.cpu.dcache.cpu_side::recvTimingReq: hasPC? 1, PC = 225217352176, hasContextId? 1, contextID = 0, MemCmd: ReadReq, Size: 8, CmdDir: 1
system.cpu.icache.cpu_side::recvTimingReq: hasPC? 1, PC = 225217352112, hasContextId? 1, contextID = 0, Vaddr: 225217352064, Paddr: 106880
system.cpu.icache.cpu_side::recvTimingReq: hasPC? 1, PC = 225217352127, hasContextId? 1, contextID = 0, Vaddr: 225217352128, Paddr: 106944
system.cpu.icache.cpu_side::recvTimingReq: hasPC? 1, PC = 225217352192, hasContextId? 1, contextID = 0, Vaddr: 225217352192, Paddr: 107008
system.cpu.icache.cpu_side::recvTimingReq: hasPC? 1, PC = 225217352256, hasContextId? 1, contextID = 0, Vaddr: 225217352256, Paddr: 107072
system.cpu.dcache.cpu_side::recvTimingReq: hasPC? 1, PC = 225217352124, hasContextId? 1, contextID = 0, MemCmd: ReadReq, Size: 8, CmdDir: 1
system.cpu.dcache.cpu_side::recvTimingReq: hasPC? 1, PC = 225217352112, hasContextId? 1, contextID = 0, MemCmd: WriteReq, Size: 8, CmdDir: 1
system.cpu.dcache.cpu_side::recvTimingReq: hasPC? 1, PC = 225217352168, hasContextId? 1, contextID = 0, MemCmd: ReadReq, Size: 8, CmdDir: 1
system.cpu.dcache.cpu_side::recvTimingReq: hasPC? 1, PC = 225217352176, hasContextId? 1, contextID = 0, MemCmd: ReadReq, Size: 8, CmdDir: 1
system.cpu.icache.cpu_side::recvTimingReq: hasPC? 1, PC = 225217352112, hasContextId? 1, contextID = 0, Vaddr: 225217352064, Paddr: 106880
system.cpu.icache.cpu_side::recvTimingReq: hasPC? 1, PC = 225217352127, hasContextId? 1, contextID = 0, Vaddr: 225217352128, Paddr: 106944
system.cpu.icache.cpu_side::recvTimingReq: hasPC? 1, PC = 225217352192, hasContextId? 1, contextID = 0, Vaddr: 225217352192, Paddr: 107008
system.cpu.icache.cpu_side::recvTimingReq: hasPC? 1, PC = 225217352256, hasContextId? 1, contextID = 0, Vaddr: 225217352256, Paddr: 107072
system.cpu.dcache.cpu_side::recvTimingReq: hasPC? 1, PC = 225217352124, hasContextId? 1, contextID = 0, MemCmd: ReadReq, Size: 8, CmdDir: 1
system.cpu.dcache.cpu_side::recvTimingReq: hasPC? 1, PC = 225217352112, hasContextId? 1, contextID = 0, MemCmd: WriteReq, Size: 8, CmdDir: 1
system.cpu.dcache.cpu_side::recvTimingReq: hasPC? 1, PC = 225217352168, hasContextId? 1, contextID = 0, MemCmd: ReadReq, Size: 8, CmdDir: 1
system.cpu.dcache.cpu_side::recvTimingReq: hasPC? 1, PC = 225217352176, hasContextId? 1, contextID = 0, MemCmd: ReadReq, Size: 8, CmdDir: 1
system.cpu.icache.cpu_side::recvTimingReq: hasPC? 1, PC = 225217352112, hasContextId? 1, contextID = 0, Vaddr: 225217352064, Paddr: 106880
system.cpu.icache.cpu_side::recvTimingReq: hasPC? 1, PC = 225217352127, hasContextId? 1, contextID = 0, Vaddr: 225217352128, Paddr: 106944
system.cpu.icache.cpu_side::recvTimingReq: hasPC? 1, PC = 225217352192, hasContextId? 1, contextID = 0, Vaddr: 225217352192, Paddr: 107008
system.cpu.icache.cpu_side::recvTimingReq: hasPC? 1, PC = 225217352256, hasContextId? 1, contextID = 0, Vaddr: 225217352256, Paddr: 107072
system.cpu.dcache.cpu_side::recvTimingReq: hasPC? 1, PC = 225217352124, hasContextId? 1, contextID = 0, MemCmd: ReadReq, Size: 8, CmdDir: 1
system.cpu.dcache.cpu_side::recvTimingReq: hasPC? 1, PC = 225217352112, hasContextId? 1, contextID = 0, MemCmd: WriteReq, Size: 8, CmdDir: 1
system.cpu.dcache.cpu_side::recvTimingReq: hasPC? 1, PC = 225217352168, hasContextId? 1, contextID = 0, MemCmd: ReadReq, Size: 8, CmdDir: 1
system.cpu.dcache.cpu_side::recvTimingReq: hasPC? 1, PC = 225217352176, hasContextId? 1, contextID = 0, MemCmd: ReadReq, Size: 8, CmdDir: 1
system.cpu.dcache.cpu_side::recvTimingReq: hasPC? 1, PC = 225217352192, hasContextId? 1, contextID = 0, MemCmd: ReadReq, Size: 8, CmdDir: 1
system.cpu.icache.cpu_side::recvTimingReq: hasPC? 1, PC = 225217352320, hasContextId? 1, contextID = 0, Vaddr: 225217352320, Paddr: 107136
system.cpu.dcache.cpu_side::recvTimingReq: hasPC? 1, PC = 225217352208, hasContextId? 1, contextID = 0, MemCmd: ReadReq, Size: 8, CmdDir: 1
system.cpu.dcache.cpu_side::recvTimingReq: hasPC? 1, PC = 225217352224, hasContextId? 1, contextID = 0, MemCmd: ReadReq, Size: 8, CmdDir: 1
system.cpu.dcache.cpu_side::recvTimingReq: hasPC? 1, PC = 225217352204, hasContextId? 1, contextID = 0, MemCmd: ReadReq, Size: 8, CmdDir: 1
system.cpu.dcache.cpu_side::recvTimingReq: hasPC? 1, PC = 225217352240, hasContextId? 1, contextID = 0, MemCmd: ReadReq, Size: 8, CmdDir: 1
system.cpu.dcache.cpu_side::recvTimingReq: hasPC? 1, PC = 225217352256, hasContextId? 1, contextID = 0, MemCmd: ReadReq, Size: 8, CmdDir: 1
system.cpu.dcache.cpu_side::recvTimingReq: hasPC? 1, PC = 225217352272, hasContextId? 1, contextID = 0, MemCmd: ReadReq, Size: 8, CmdDir: 1
system.cpu.dcache.cpu_side::recvTimingReq: hasPC? 1, PC = 225217352236, hasContextId? 1, contextID = 0, MemCmd: ReadReq, Size: 8, CmdDir: 1
system.cpu.icache.cpu_side::recvTimingReq: hasPC? 1, PC = 225217352383, hasContextId? 1, contextID = 0, Vaddr: 225217352384, Paddr: 107200
system.cpu.dcache.cpu_side::recvTimingReq: hasPC? 1, PC = 225217352288, hasContextId? 1, contextID = 0, MemCmd: ReadReq, Size: 8, CmdDir: 1
system.cpu.dcache.cpu_side::recvTimingReq: hasPC? 1, PC = 225217352252, hasContextId? 1, contextID = 0, MemCmd: ReadReq, Size: 8, CmdDir: 1
system.cpu.dcache.cpu_side::recvTimingReq: hasPC? 1, PC = 225217352304, hasContextId? 1, contextID = 0, MemCmd: ReadReq, Size: 8, CmdDir: 1
system.cpu.dcache.cpu_side::recvTimingReq: hasPC? 1, PC = 225217352333, hasContextId? 1, contextID = 0, MemCmd: ReadReq, Size: 8, CmdDir: 1
system.cpu.icache.cpu_side::recvTimingReq: hasPC? 1, PC = 225217352220, hasContextId? 1, contextID = 0, Vaddr: 225217352192, Paddr: 107008
system.cpu.icache.cpu_side::recvTimingReq: hasPC? 1, PC = 225217352256, hasContextId? 1, contextID = 0, Vaddr: 225217352256, Paddr: 107072
system.cpu.icache.cpu_side::recvTimingReq: hasPC? 1, PC = 225217352320, hasContextId? 1, contextID = 0, Vaddr: 225217352320, Paddr: 107136
system.cpu.dcache.cpu_side::recvTimingReq: hasPC? 1, PC = 225217352220, hasContextId? 1, contextID = 0, MemCmd: ReadReq, Size: 8, CmdDir: 1
system.cpu.dcache.cpu_side::recvTimingReq: hasPC? 1, PC = 225217352224, hasContextId? 1, contextID = 0, MemCmd: ReadReq, Size: 8, CmdDir: 1
system.cpu.dcache.cpu_side::recvTimingReq: hasPC? 1, PC = 225217352240, hasContextId? 1, contextID = 0, MemCmd: ReadReq, Size: 8, CmdDir: 1
system.cpu.dcache.cpu_side::recvTimingReq: hasPC? 1, PC = 225217352236, hasContextId? 1, contextID = 0, MemCmd: ReadReq, Size: 8, CmdDir: 1
system.cpu.dcache.cpu_side::recvTimingReq: hasPC? 1, PC = 225217352256, hasContextId? 1, contextID = 0, MemCmd: ReadReq, Size: 8, CmdDir: 1
system.cpu.icache.cpu_side::recvTimingReq: hasPC? 1, PC = 225217352383, hasContextId? 1, contextID = 0, Vaddr: 225217352384, Paddr: 107200
system.cpu.dcache.cpu_side::recvTimingReq: hasPC? 1, PC = 225217352272, hasContextId? 1, contextID = 0, MemCmd: ReadReq, Size: 8, CmdDir: 1
system.cpu.dcache.cpu_side::recvTimingReq: hasPC? 1, PC = 225217352252, hasContextId? 1, contextID = 0, MemCmd: ReadReq, Size: 8, CmdDir: 1
system.cpu.dcache.cpu_side::recvTimingReq: hasPC? 1, PC = 225217352288, hasContextId? 1, contextID = 0, MemCmd: ReadReq, Size: 8, CmdDir: 1
system.cpu.dcache.cpu_side::recvTimingReq: hasPC? 1, PC = 225217352304, hasContextId? 1, contextID = 0, MemCmd: ReadReq, Size: 8, CmdDir: 1
system.cpu.dcache.cpu_side::recvTimingReq: hasPC? 1, PC = 225217352333, hasContextId? 1, contextID = 0, MemCmd: ReadReq, Size: 8, CmdDir: 1
system.cpu.dcache.cpu_side::recvTimingReq: hasPC? 1, PC = 225217352347, hasContextId? 1, contextID = 0, MemCmd: ReadReq, Size: 8, CmdDir: 1
system.cpu.dcache.cpu_side::recvTimingReq: hasPC? 1, PC = 225217352316, hasContextId? 1, contextID = 0, MemCmd: ReadReq, Size: 8, CmdDir: 1
system.cpu.dcache.cpu_side::recvTimingReq: hasPC? 1, PC = 225217352357, hasContextId? 1, contextID = 0, MemCmd: ReadReq, Size: 8, CmdDir: 1
system.cpu.icache.cpu_side::recvTimingReq: hasPC? 1, PC = 225217352272, hasContextId? 1, contextID = 0, Vaddr: 225217352256, Paddr: 107072
system.cpu.icache.cpu_side::recvTimingReq: hasPC? 1, PC = 225217352320, hasContextId? 1, contextID = 0, Vaddr: 225217352320, Paddr: 107136
system.cpu.icache.cpu_side::recvTimingReq: hasPC? 1, PC = 225217352383, hasContextId? 1, contextID = 0, Vaddr: 225217352384, Paddr: 107200
system.cpu.dcache.cpu_side::recvTimingReq: hasPC? 1, PC = 225217352272, hasContextId? 1, contextID = 0, MemCmd: ReadReq, Size: 8, CmdDir: 1
system.cpu.icache.cpu_side::recvTimingReq: hasPC? 1, PC = 225217352112, hasContextId? 1, contextID = 0, Vaddr: 225217352064, Paddr: 106880
system.cpu.icache.cpu_side::recvTimingReq: hasPC? 1, PC = 225217352127, hasContextId? 1, contextID = 0, Vaddr: 225217352128, Paddr: 106944
system.cpu.icache.cpu_side::recvTimingReq: hasPC? 1, PC = 225217352192, hasContextId? 1, contextID = 0, Vaddr: 225217352192, Paddr: 107008
system.cpu.icache.cpu_side::recvTimingReq: hasPC? 1, PC = 225217352256, hasContextId? 1, contextID = 0, Vaddr: 225217352256, Paddr: 107072
system.cpu.dcache.cpu_side::recvTimingReq: hasPC? 1, PC = 225217352124, hasContextId? 1, contextID = 0, MemCmd: ReadReq, Size: 8, CmdDir: 1
system.cpu.dcache.cpu_side::recvTimingReq: hasPC? 1, PC = 225217352168, hasContextId? 1, contextID = 0, MemCmd: ReadReq, Size: 8, CmdDir: 1
system.cpu.dcache.cpu_side::recvTimingReq: hasPC? 1, PC = 225217352176, hasContextId? 1, contextID = 0, MemCmd: ReadReq, Size: 8, CmdDir: 1
system.cpu.dcache.cpu_side::recvTimingReq: hasPC? 1, PC = 225217352112, hasContextId? 1, contextID = 0, MemCmd: WriteReq, Size: 8, CmdDir: 1
system.cpu.dcache.cpu_side::recvTimingReq: hasPC? 1, PC = 225217352192, hasContextId? 1, contextID = 0, MemCmd: ReadReq, Size: 8, CmdDir: 1
system.cpu.dcache.cpu_side::recvTimingReq: hasPC? 1, PC = 225217352208, hasContextId? 1, contextID = 0, MemCmd: ReadReq, Size: 8, CmdDir: 1
system.cpu.icache.cpu_side::recvTimingReq: hasPC? 1, PC = 225217352112, hasContextId? 1, contextID = 0, Vaddr: 225217352064, Paddr: 106880
system.cpu.icache.cpu_side::recvTimingReq: hasPC? 1, PC = 225217352127, hasContextId? 1, contextID = 0, Vaddr: 225217352128, Paddr: 106944
system.cpu.icache.cpu_side::recvTimingReq: hasPC? 1, PC = 225217352192, hasContextId? 1, contextID = 0, Vaddr: 225217352192, Paddr: 107008
system.cpu.icache.cpu_side::recvTimingReq: hasPC? 1, PC = 225217352256, hasContextId? 1, contextID = 0, Vaddr: 225217352256, Paddr: 107072
system.cpu.dcache.cpu_side::recvTimingReq: hasPC? 1, PC = 225217352124, hasContextId? 1, contextID = 0, MemCmd: ReadReq, Size: 8, CmdDir: 1
system.cpu.dcache.cpu_side::recvTimingReq: hasPC? 1, PC = 225217352112, hasContextId? 1, contextID = 0, MemCmd: WriteReq, Size: 8, CmdDir: 1
system.cpu.dcache.cpu_side::recvTimingReq: hasPC? 1, PC = 225217352168, hasContextId? 1, contextID = 0, MemCmd: ReadReq, Size: 8, CmdDir: 1
system.cpu.dcache.cpu_side::recvTimingReq: hasPC? 1, PC = 225217352176, hasContextId? 1, contextID = 0, MemCmd: ReadReq, Size: 8, CmdDir: 1
system.cpu.icache.cpu_side::recvTimingReq: hasPC? 1, PC = 225217352112, hasContextId? 1, contextID = 0, Vaddr: 225217352064, Paddr: 106880
system.cpu.icache.cpu_side::recvTimingReq: hasPC? 1, PC = 225217352127, hasContextId? 1, contextID = 0, Vaddr: 225217352128, Paddr: 106944
system.cpu.icache.cpu_side::recvTimingReq: hasPC? 1, PC = 225217352192, hasContextId? 1, contextID = 0, Vaddr: 225217352192, Paddr: 107008
system.cpu.icache.cpu_side::recvTimingReq: hasPC? 1, PC = 225217352256, hasContextId? 1, contextID = 0, Vaddr: 225217352256, Paddr: 107072
system.cpu.dcache.cpu_side::recvTimingReq: hasPC? 1, PC = 225217352124, hasContextId? 1, contextID = 0, MemCmd: ReadReq, Size: 8, CmdDir: 1
system.cpu.dcache.cpu_side::recvTimingReq: hasPC? 1, PC = 225217352168, hasContextId? 1, contextID = 0, MemCmd: ReadReq, Size: 8, CmdDir: 1
system.cpu.dcache.cpu_side::recvTimingReq: hasPC? 1, PC = 225217352176, hasContextId? 1, contextID = 0, MemCmd: ReadReq, Size: 8, CmdDir: 1
system.cpu.dcache.cpu_side::recvTimingReq: hasPC? 1, PC = 225217352112, hasContextId? 1, contextID = 0, MemCmd: WriteReq, Size: 8, CmdDir: 1
system.cpu.dcache.cpu_side::recvTimingReq: hasPC? 1, PC = 225217352192, hasContextId? 1, contextID = 0, MemCmd: ReadReq, Size: 8, CmdDir: 1
system.cpu.dcache.cpu_side::recvTimingReq: hasPC? 1, PC = 225217352208, hasContextId? 1, contextID = 0, MemCmd: ReadReq, Size: 8, CmdDir: 1
system.cpu.icache.cpu_side::recvTimingReq: hasPC? 1, PC = 225217352112, hasContextId? 1, contextID = 0, Vaddr: 225217352064, Paddr: 106880
system.cpu.icache.cpu_side::recvTimingReq: hasPC? 1, PC = 225217352127, hasContextId? 1, contextID = 0, Vaddr: 225217352128, Paddr: 106944
system.cpu.icache.cpu_side::recvTimingReq: hasPC? 1, PC = 225217352192, hasContextId? 1, contextID = 0, Vaddr: 225217352192, Paddr: 107008
system.cpu.icache.cpu_side::recvTimingReq: hasPC? 1, PC = 225217352256, hasContextId? 1, contextID = 0, Vaddr: 225217352256, Paddr: 107072
system.cpu.dcache.cpu_side::recvTimingReq: hasPC? 1, PC = 225217352124, hasContextId? 1, contextID = 0, MemCmd: ReadReq, Size: 8, CmdDir: 1
system.cpu.dcache.cpu_side::recvTimingReq: hasPC? 1, PC = 225217352112, hasContextId? 1, contextID = 0, MemCmd: WriteReq, Size: 8, CmdDir: 1
system.cpu.dcache.cpu_side::recvTimingReq: hasPC? 1, PC = 225217352168, hasContextId? 1, contextID = 0, MemCmd: ReadReq, Size: 8, CmdDir: 1
system.cpu.dcache.cpu_side::recvTimingReq: hasPC? 1, PC = 225217352176, hasContextId? 1, contextID = 0, MemCmd: ReadReq, Size: 8, CmdDir: 1
system.cpu.dcache.cpu_side::recvTimingReq: hasPC? 1, PC = 225217352192, hasContextId? 1, contextID = 0, MemCmd: ReadReq, Size: 8, CmdDir: 1
system.cpu.icache.cpu_side::recvTimingReq: hasPC? 1, PC = 225217352320, hasContextId? 1, contextID = 0, Vaddr: 225217352320, Paddr: 107136
system.cpu.dcache.cpu_side::recvTimingReq: hasPC? 1, PC = 225217352208, hasContextId? 1, contextID = 0, MemCmd: ReadReq, Size: 8, CmdDir: 1
system.cpu.dcache.cpu_side::recvTimingReq: hasPC? 1, PC = 225217352224, hasContextId? 1, contextID = 0, MemCmd: ReadReq, Size: 8, CmdDir: 1
system.cpu.dcache.cpu_side::recvTimingReq: hasPC? 1, PC = 225217352204, hasContextId? 1, contextID = 0, MemCmd: ReadReq, Size: 8, CmdDir: 1
system.cpu.dcache.cpu_side::recvTimingReq: hasPC? 1, PC = 225217352240, hasContextId? 1, contextID = 0, MemCmd: ReadReq, Size: 8, CmdDir: 1
system.cpu.dcache.cpu_side::recvTimingReq: hasPC? 1, PC = 225217352220, hasContextId? 1, contextID = 0, MemCmd: ReadReq, Size: 8, CmdDir: 1
system.cpu.dcache.cpu_side::recvTimingReq: hasPC? 1, PC = 225217352256, hasContextId? 1, contextID = 0, MemCmd: ReadReq, Size: 8, CmdDir: 1
system.cpu.dcache.cpu_side::recvTimingReq: hasPC? 1, PC = 225217352236, hasContextId? 1, contextID = 0, MemCmd: ReadReq, Size: 8, CmdDir: 1
system.cpu.dcache.cpu_side::recvTimingReq: hasPC? 1, PC = 225217352272, hasContextId? 1, contextID = 0, MemCmd: ReadReq, Size: 8, CmdDir: 1
system.cpu.icache.cpu_side::recvTimingReq: hasPC? 1, PC = 225217352383, hasContextId? 1, contextID = 0, Vaddr: 225217352384, Paddr: 107200
system.cpu.dcache.cpu_side::recvTimingReq: hasPC? 1, PC = 225217352288, hasContextId? 1, contextID = 0, MemCmd: ReadReq, Size: 8, CmdDir: 1
system.cpu.dcache.cpu_side::recvTimingReq: hasPC? 1, PC = 225217352252, hasContextId? 1, contextID = 0, MemCmd: ReadReq, Size: 8, CmdDir: 1
system.cpu.dcache.cpu_side::recvTimingReq: hasPC? 1, PC = 225217352304, hasContextId? 1, contextID = 0, MemCmd: ReadReq, Size: 8, CmdDir: 1
system.cpu.dcache.cpu_side::recvTimingReq: hasPC? 1, PC = 225217352284, hasContextId? 1, contextID = 0, MemCmd: ReadReq, Size: 8, CmdDir: 1
system.cpu.dcache.cpu_side::recvTimingReq: hasPC? 1, PC = 225217352329, hasContextId? 1, contextID = 0, MemCmd: ReadReq, Size: 8, CmdDir: 1
system.cpu.icache.cpu_side::recvTimingReq: hasPC? 1, PC = 225217352448, hasContextId? 1, contextID = 0, Vaddr: 225217352448, Paddr: 107264
system.cpu.dcache.cpu_side::recvTimingReq: hasPC? 1, PC = 225217352316, hasContextId? 1, contextID = 0, MemCmd: ReadReq, Size: 8, CmdDir: 1
system.cpu.dcache.cpu_side::recvTimingReq: hasPC? 1, PC = 225217352333, hasContextId? 1, contextID = 0, MemCmd: ReadReq, Size: 8, CmdDir: 1
system.cpu.dcache.cpu_side::recvTimingReq: hasPC? 1, PC = 225217352347, hasContextId? 1, contextID = 0, MemCmd: ReadReq, Size: 8, CmdDir: 1
system.cpu.icache.cpu_side::recvTimingReq: hasPC? 1, PC = 225217352268, hasContextId? 1, contextID = 0, Vaddr: 225217352256, Paddr: 107072
system.cpu.icache.cpu_side::recvTimingReq: hasPC? 1, PC = 225217352320, hasContextId? 1, contextID = 0, Vaddr: 225217352320, Paddr: 107136
system.cpu.icache.cpu_side::recvTimingReq: hasPC? 1, PC = 225217352383, hasContextId? 1, contextID = 0, Vaddr: 225217352384, Paddr: 107200
system.cpu.dcache.cpu_side::recvTimingReq: hasPC? 1, PC = 225217352268, hasContextId? 1, contextID = 0, MemCmd: ReadReq, Size: 8, CmdDir: 1
system.cpu.dcache.cpu_side::recvTimingReq: hasPC? 1, PC = 225217352272, hasContextId? 1, contextID = 0, MemCmd: ReadReq, Size: 8, CmdDir: 1
system.cpu.dcache.cpu_side::recvTimingReq: hasPC? 1, PC = 225217352288, hasContextId? 1, contextID = 0, MemCmd: ReadReq, Size: 8, CmdDir: 1
system.cpu.icache.cpu_side::recvTimingReq: hasPC? 1, PC = 225217352448, hasContextId? 1, contextID = 0, Vaddr: 225217352448, Paddr: 107264
system.cpu.dcache.cpu_side::recvTimingReq: hasPC? 1, PC = 225217352284, hasContextId? 1, contextID = 0, MemCmd: ReadReq, Size: 8, CmdDir: 1
system.cpu.dcache.cpu_side::recvTimingReq: hasPC? 1, PC = 225217352304, hasContextId? 1, contextID = 0, MemCmd: ReadReq, Size: 8, CmdDir: 1
system.cpu.dcache.cpu_side::recvTimingReq: hasPC? 1, PC = 225217352333, hasContextId? 1, contextID = 0, MemCmd: ReadReq, Size: 8, CmdDir: 1
system.cpu.dcache.cpu_side::recvTimingReq: hasPC? 1, PC = 225217352347, hasContextId? 1, contextID = 0, MemCmd: ReadReq, Size: 8, CmdDir: 1
system.cpu.dcache.cpu_side::recvTimingReq: hasPC? 1, PC = 225217352357, hasContextId? 1, contextID = 0, MemCmd: ReadReq, Size: 8, CmdDir: 1
system.cpu.dcache.cpu_side::recvTimingReq: hasPC? 1, PC = 225217352316, hasContextId? 1, contextID = 0, MemCmd: ReadReq, Size: 8, CmdDir: 1
system.cpu.dcache.cpu_side::recvTimingReq: hasPC? 1, PC = 225217352340, hasContextId? 1, contextID = 0, MemCmd: ReadReq, Size: 8, CmdDir: 1
system.cpu.dcache.cpu_side::recvTimingReq: hasPC? 1, PC = 225217352368, hasContextId? 1, contextID = 0, MemCmd: ReadReq, Size: 8, CmdDir: 1
system.cpu.icache.cpu_side::recvTimingReq: hasPC? 1, PC = 225217352304, hasContextId? 1, contextID = 0, Vaddr: 225217352256, Paddr: 107072
system.cpu.icache.cpu_side::recvTimingReq: hasPC? 1, PC = 225217352320, hasContextId? 1, contextID = 0, Vaddr: 225217352320, Paddr: 107136
system.cpu.icache.cpu_side::recvTimingReq: hasPC? 1, PC = 225217352112, hasContextId? 1, contextID = 0, Vaddr: 225217352064, Paddr: 106880
system.cpu.icache.cpu_side::recvTimingReq: hasPC? 1, PC = 225217352127, hasContextId? 1, contextID = 0, Vaddr: 225217352128, Paddr: 106944
system.cpu.icache.cpu_side::recvTimingReq: hasPC? 1, PC = 225217352192, hasContextId? 1, contextID = 0, Vaddr: 225217352192, Paddr: 107008
system.cpu.icache.cpu_side::recvTimingReq: hasPC? 1, PC = 225217352256, hasContextId? 1, contextID = 0, Vaddr: 225217352256, Paddr: 107072
system.cpu.dcache.cpu_side::recvTimingReq: hasPC? 1, PC = 225217352124, hasContextId? 1, contextID = 0, MemCmd: ReadReq, Size: 8, CmdDir: 1
system.cpu.dcache.cpu_side::recvTimingReq: hasPC? 1, PC = 225217352112, hasContextId? 1, contextID = 0, MemCmd: WriteReq, Size: 8, CmdDir: 1
system.cpu.dcache.cpu_side::recvTimingReq: hasPC? 1, PC = 225217352168, hasContextId? 1, contextID = 0, MemCmd: ReadReq, Size: 8, CmdDir: 1
system.cpu.dcache.cpu_side::recvTimingReq: hasPC? 1, PC = 225217352176, hasContextId? 1, contextID = 0, MemCmd: ReadReq, Size: 8, CmdDir: 1
system.cpu.icache.cpu_side::recvTimingReq: hasPC? 1, PC = 225217352320, hasContextId? 1, contextID = 0, Vaddr: 225217352320, Paddr: 107136
system.cpu.dcache.cpu_side::recvTimingReq: hasPC? 1, PC = 225217352192, hasContextId? 1, contextID = 0, MemCmd: ReadReq, Size: 8, CmdDir: 1
system.cpu.dcache.cpu_side::recvTimingReq: hasPC? 1, PC = 225217352208, hasContextId? 1, contextID = 0, MemCmd: ReadReq, Size: 8, CmdDir: 1
system.cpu.dcache.cpu_side::recvTimingReq: hasPC? 1, PC = 225217352224, hasContextId? 1, contextID = 0, MemCmd: ReadReq, Size: 8, CmdDir: 1
system.cpu.dcache.cpu_side::recvTimingReq: hasPC? 1, PC = 225217352240, hasContextId? 1, contextID = 0, MemCmd: ReadReq, Size: 8, CmdDir: 1
system.cpu.dcache.cpu_side::recvTimingReq: hasPC? 1, PC = 225217352204, hasContextId? 1, contextID = 0, MemCmd: ReadReq, Size: 8, CmdDir: 1
system.cpu.dcache.cpu_side::recvTimingReq: hasPC? 1, PC = 225217352256, hasContextId? 1, contextID = 0, MemCmd: ReadReq, Size: 8, CmdDir: 1
system.cpu.dcache.cpu_side::recvTimingReq: hasPC? 1, PC = 225217352160, hasContextId? 1, contextID = 0, MemCmd: WriteReq, Size: 8, CmdDir: 1
system.cpu.icache.cpu_side::recvTimingReq: hasPC? 1, PC = 225217352132, hasContextId? 1, contextID = 0, Vaddr: 225217352128, Paddr: 106944
system.cpu.icache.cpu_side::recvTimingReq: hasPC? 1, PC = 225217352192, hasContextId? 1, contextID = 0, Vaddr: 225217352192, Paddr: 107008
system.cpu.icache.cpu_side::recvTimingReq: hasPC? 1, PC = 225217352256, hasContextId? 1, contextID = 0, Vaddr: 225217352256, Paddr: 107072
system.cpu.dcache.cpu_side::recvTimingReq: hasPC? 1, PC = 225217352168, hasContextId? 1, contextID = 0, MemCmd: ReadReq, Size: 8, CmdDir: 1
system.cpu.dcache.cpu_side::recvTimingReq: hasPC? 1, PC = 225217352176, hasContextId? 1, contextID = 0, MemCmd: ReadReq, Size: 8, CmdDir: 1
system.cpu.dcache.cpu_side::recvTimingReq: hasPC? 1, PC = 225217352192, hasContextId? 1, contextID = 0, MemCmd: ReadReq, Size: 8, CmdDir: 1
system.cpu.icache.cpu_side::recvTimingReq: hasPC? 1, PC = 225217352320, hasContextId? 1, contextID = 0, Vaddr: 225217352320, Paddr: 107136
system.cpu.dcache.cpu_side::recvTimingReq: hasPC? 1, PC = 225217352208, hasContextId? 1, contextID = 0, MemCmd: ReadReq, Size: 8, CmdDir: 1
system.cpu.dcache.cpu_side::recvTimingReq: hasPC? 1, PC = 225217352224, hasContextId? 1, contextID = 0, MemCmd: ReadReq, Size: 8, CmdDir: 1
system.cpu.dcache.cpu_side::recvTimingReq: hasPC? 1, PC = 225217352204, hasContextId? 1, contextID = 0, MemCmd: ReadReq, Size: 8, CmdDir: 1
system.cpu.dcache.cpu_side::recvTimingReq: hasPC? 1, PC = 225217352240, hasContextId? 1, contextID = 0, MemCmd: ReadReq, Size: 8, CmdDir: 1
system.cpu.dcache.cpu_side::recvTimingReq: hasPC? 1, PC = 225217352220, hasContextId? 1, contextID = 0, MemCmd: ReadReq, Size: 8, CmdDir: 1
system.cpu.icache.cpu_side::recvTimingReq: hasPC? 1, PC = 225217352132, hasContextId? 1, contextID = 0, Vaddr: 225217352128, Paddr: 106944
system.cpu.icache.cpu_side::recvTimingReq: hasPC? 1, PC = 225217352192, hasContextId? 1, contextID = 0, Vaddr: 225217352192, Paddr: 107008
system.cpu.icache.cpu_side::recvTimingReq: hasPC? 1, PC = 225217352256, hasContextId? 1, contextID = 0, Vaddr: 225217352256, Paddr: 107072
system.cpu.icache.cpu_side::recvTimingReq: hasPC? 1, PC = 225217352112, hasContextId? 1, contextID = 0, Vaddr: 225217352064, Paddr: 106880
system.cpu.icache.cpu_side::recvTimingReq: hasPC? 1, PC = 225217352127, hasContextId? 1, contextID = 0, Vaddr: 225217352128, Paddr: 106944
system.cpu.icache.cpu_side::recvTimingReq: hasPC? 1, PC = 225217352192, hasContextId? 1, contextID = 0, Vaddr: 225217352192, Paddr: 107008
system.cpu.dcache.cpu_side::recvTimingReq: hasPC? 1, PC = 225217352124, hasContextId? 1, contextID = 0, MemCmd: ReadReq, Size: 8, CmdDir: 1
system.cpu.icache.cpu_side::recvTimingReq: hasPC? 1, PC = 225217352256, hasContextId? 1, contextID = 0, Vaddr: 225217352256, Paddr: 107072
system.cpu.dcache.cpu_side::recvTimingReq: hasPC? 1, PC = 225217352168, hasContextId? 1, contextID = 0, MemCmd: ReadReq, Size: 8, CmdDir: 1
system.cpu.dcache.cpu_side::recvTimingReq: hasPC? 1, PC = 225217352176, hasContextId? 1, contextID = 0, MemCmd: ReadReq, Size: 8, CmdDir: 1
system.cpu.dcache.cpu_side::recvTimingReq: hasPC? 1, PC = 225217352192, hasContextId? 1, contextID = 0, MemCmd: ReadReq, Size: 8, CmdDir: 1
system.cpu.dcache.cpu_side::recvTimingReq: hasPC? 1, PC = 225217352208, hasContextId? 1, contextID = 0, MemCmd: ReadReq, Size: 8, CmdDir: 1
system.cpu.dcache.cpu_side::recvTimingReq: hasPC? 1, PC = 225217352224, hasContextId? 1, contextID = 0, MemCmd: ReadReq, Size: 8, CmdDir: 1
system.cpu.icache.cpu_side::recvTimingReq: hasPC? 1, PC = 225217352320, hasContextId? 1, contextID = 0, Vaddr: 225217352320, Paddr: 107136
system.cpu.dcache.cpu_side::recvTimingReq: hasPC? 1, PC = 225217352204, hasContextId? 1, contextID = 0, MemCmd: ReadReq, Size: 8, CmdDir: 1
system.cpu.dcache.cpu_side::recvTimingReq: hasPC? 1, PC = 225217352240, hasContextId? 1, contextID = 0, MemCmd: ReadReq, Size: 8, CmdDir: 1
system.cpu.dcache.cpu_side::recvTimingReq: hasPC? 1, PC = 225217352160, hasContextId? 1, contextID = 0, MemCmd: WriteReq, Size: 8, CmdDir: 1
system.cpu.dcache.cpu_side::recvTimingReq: hasPC? 1, PC = 225217352220, hasContextId? 1, contextID = 0, MemCmd: ReadReq, Size: 8, CmdDir: 1
system.cpu.dcache.cpu_side::recvTimingReq: hasPC? 1, PC = 225217352236, hasContextId? 1, contextID = 0, MemCmd: ReadReq, Size: 8, CmdDir: 1
system.cpu.dcache.cpu_side::recvTimingReq: hasPC? 1, PC = 225217352256, hasContextId? 1, contextID = 0, MemCmd: ReadReq, Size: 8, CmdDir: 1
system.cpu.dcache.cpu_side::recvTimingReq: hasPC? 1, PC = 225217352272, hasContextId? 1, contextID = 0, MemCmd: ReadReq, Size: 8, CmdDir: 1
system.cpu.dcache.cpu_side::recvTimingReq: hasPC? 1, PC = 225217352252, hasContextId? 1, contextID = 0, MemCmd: ReadReq, Size: 8, CmdDir: 1
system.cpu.dcache.cpu_side::recvTimingReq: hasPC? 1, PC = 225217352288, hasContextId? 1, contextID = 0, MemCmd: ReadReq, Size: 8, CmdDir: 1
system.cpu.icache.cpu_side::recvTimingReq: hasPC? 1, PC = 225217352383, hasContextId? 1, contextID = 0, Vaddr: 225217352384, Paddr: 107200
system.cpu.dcache.cpu_side::recvTimingReq: hasPC? 1, PC = 225217352304, hasContextId? 1, contextID = 0, MemCmd: ReadReq, Size: 8, CmdDir: 1
system.cpu.dcache.cpu_side::recvTimingReq: hasPC? 1, PC = 225217352268, hasContextId? 1, contextID = 0, MemCmd: ReadReq, Size: 8, CmdDir: 1
system.cpu.dcache.cpu_side::recvTimingReq: hasPC? 1, PC = 225217352284, hasContextId? 1, contextID = 0, MemCmd: ReadReq, Size: 8, CmdDir: 1
system.cpu.dcache.cpu_side::recvTimingReq: hasPC? 1, PC = 225217352316, hasContextId? 1, contextID = 0, MemCmd: ReadReq, Size: 8, CmdDir: 1
system.cpu.dcache.cpu_side::recvTimingReq: hasPC? 1, PC = 225217352329, hasContextId? 1, contextID = 0, MemCmd: ReadReq, Size: 8, CmdDir: 1
system.cpu.icache.cpu_side::recvTimingReq: hasPC? 1, PC = 225217352448, hasContextId? 1, contextID = 0, Vaddr: 225217352448, Paddr: 107264
system.cpu.dcache.cpu_side::recvTimingReq: hasPC? 1, PC = 225217352333, hasContextId? 1, contextID = 0, MemCmd: ReadReq, Size: 8, CmdDir: 1
system.cpu.dcache.cpu_side::recvTimingReq: hasPC? 1, PC = 225217352347, hasContextId? 1, contextID = 0, MemCmd: ReadReq, Size: 8, CmdDir: 1
system.cpu.icache.cpu_side::recvTimingReq: hasPC? 1, PC = 225217352329, hasContextId? 1, contextID = 0, Vaddr: 225217352320, Paddr: 107136
system.cpu.icache.cpu_side::recvTimingReq: hasPC? 1, PC = 225217352304, hasContextId? 1, contextID = 0, Vaddr: 225217352256, Paddr: 107072
system.cpu.icache.cpu_side::recvTimingReq: hasPC? 1, PC = 225217352320, hasContextId? 1, contextID = 0, Vaddr: 225217352320, Paddr: 107136
system.cpu.icache.cpu_side::recvTimingReq: hasPC? 1, PC = 225217352383, hasContextId? 1, contextID = 0, Vaddr: 225217352384, Paddr: 107200
system.cpu.dcache.cpu_side::recvTimingReq: hasPC? 1, PC = 225217352304, hasContextId? 1, contextID = 0, MemCmd: ReadReq, Size: 8, CmdDir: 1
system.cpu.icache.cpu_side::recvTimingReq: hasPC? 1, PC = 225217352448, hasContextId? 1, contextID = 0, Vaddr: 225217352448, Paddr: 107264
system.cpu.dcache.cpu_side::recvTimingReq: hasPC? 1, PC = 225217352333, hasContextId? 1, contextID = 0, MemCmd: ReadReq, Size: 8, CmdDir: 1
system.cpu.dcache.cpu_side::recvTimingReq: hasPC? 1, PC = 225217352316, hasContextId? 1, contextID = 0, MemCmd: ReadReq, Size: 8, CmdDir: 1
system.cpu.dcache.cpu_side::recvTimingReq: hasPC? 1, PC = 225217352347, hasContextId? 1, contextID = 0, MemCmd: ReadReq, Size: 8, CmdDir: 1
system.cpu.dcache.cpu_side::recvTimingReq: hasPC? 1, PC = 225217352357, hasContextId? 1, contextID = 0, MemCmd: ReadReq, Size: 8, CmdDir: 1
system.cpu.dcache.cpu_side::recvTimingReq: hasPC? 1, PC = 225217352368, hasContextId? 1, contextID = 0, MemCmd: ReadReq, Size: 8, CmdDir: 1
system.cpu.dcache.cpu_side::recvTimingReq: hasPC? 1, PC = 225217352340, hasContextId? 1, contextID = 0, MemCmd: ReadReq, Size: 8, CmdDir: 1
system.cpu.icache.cpu_side::recvTimingReq: hasPC? 1, PC = 225217352512, hasContextId? 1, contextID = 0, Vaddr: 225217352512, Paddr: 107328
system.cpu.dcache.cpu_side::recvTimingReq: hasPC? 1, PC = 225217352364, hasContextId? 1, contextID = 0, MemCmd: ReadReq, Size: 8, CmdDir: 1
system.cpu.dcache.cpu_side::recvTimingReq: hasPC? 1, PC = 225217352435, hasContextId? 1, contextID = 0, MemCmd: ReadReq, Size: 8, CmdDir: 1
system.cpu.icache.cpu_side::recvTimingReq: hasPC? 1, PC = 225217352545, hasContextId? 1, contextID = 0, Vaddr: 225217352512, Paddr: 107328
system.cpu.icache.cpu_side::recvTimingReq: hasPC? 1, PC = 225217352132, hasContextId? 1, contextID = 0, Vaddr: 225217352128, Paddr: 106944
system.cpu.dcache.cpu_side::recvTimingReq: hasPC? 1, PC = 225217352112, hasContextId? 1, contextID = 0, MemCmd: WriteReq, Size: 8, CmdDir: 1
system.cpu.icache.cpu_side::recvTimingReq: hasPC? 1, PC = 225217352192, hasContextId? 1, contextID = 0, Vaddr: 225217352192, Paddr: 107008
system.cpu.dcache.cpu_side::recvTimingReq: hasPC? 1, PC = 225217352160, hasContextId? 1, contextID = 0, MemCmd: WriteReq, Size: 8, CmdDir: 1
system.cpu.icache.cpu_side::recvTimingReq: hasPC? 1, PC = 225217352256, hasContextId? 1, contextID = 0, Vaddr: 225217352256, Paddr: 107072
system.cpu.dcache.cpu_side::recvTimingReq: hasPC? 1, PC = 225217352168, hasContextId? 1, contextID = 0, MemCmd: ReadReq, Size: 8, CmdDir: 1
system.cpu.dcache.cpu_side::recvTimingReq: hasPC? 1, PC = 225217352176, hasContextId? 1, contextID = 0, MemCmd: ReadReq, Size: 8, CmdDir: 1
system.cpu.dcache.cpu_side::recvTimingReq: hasPC? 1, PC = 225217352192, hasContextId? 1, contextID = 0, MemCmd: ReadReq, Size: 8, CmdDir: 1
system.cpu.icache.cpu_side::recvTimingReq: hasPC? 1, PC = 225217352320, hasContextId? 1, contextID = 0, Vaddr: 225217352320, Paddr: 107136
system.cpu.dcache.cpu_side::recvTimingReq: hasPC? 1, PC = 225217352208, hasContextId? 1, contextID = 0, MemCmd: ReadReq, Size: 8, CmdDir: 1
system.cpu.dcache.cpu_side::recvTimingReq: hasPC? 1, PC = 225217352224, hasContextId? 1, contextID = 0, MemCmd: ReadReq, Size: 8, CmdDir: 1
system.cpu.dcache.cpu_side::recvTimingReq: hasPC? 1, PC = 225217352204, hasContextId? 1, contextID = 0, MemCmd: ReadReq, Size: 8, CmdDir: 1
system.cpu.dcache.cpu_side::recvTimingReq: hasPC? 1, PC = 225217352240, hasContextId? 1, contextID = 0, MemCmd: ReadReq, Size: 8, CmdDir: 1
system.cpu.dcache.cpu_side::recvTimingReq: hasPC? 1, PC = 225217352160, hasContextId? 1, contextID = 0, MemCmd: WriteReq, Size: 8, CmdDir: 1
system.cpu.dcache.cpu_side::recvTimingReq: hasPC? 1, PC = 225217352220, hasContextId? 1, contextID = 0, MemCmd: ReadReq, Size: 8, CmdDir: 1
system.cpu.icache.cpu_side::recvTimingReq: hasPC? 1, PC = 225217352132, hasContextId? 1, contextID = 0, Vaddr: 225217352128, Paddr: 106944
system.cpu.icache.cpu_side::recvTimingReq: hasPC? 1, PC = 225217352192, hasContextId? 1, contextID = 0, Vaddr: 225217352192, Paddr: 107008
system.cpu.icache.cpu_side::recvTimingReq: hasPC? 1, PC = 225217352256, hasContextId? 1, contextID = 0, Vaddr: 225217352256, Paddr: 107072
system.cpu.dcache.cpu_side::recvTimingReq: hasPC? 1, PC = 225217352168, hasContextId? 1, contextID = 0, MemCmd: ReadReq, Size: 8, CmdDir: 1
system.cpu.dcache.cpu_side::recvTimingReq: hasPC? 1, PC = 225217352176, hasContextId? 1, contextID = 0, MemCmd: ReadReq, Size: 8, CmdDir: 1
system.cpu.dcache.cpu_side::recvTimingReq: hasPC? 1, PC = 225217352192, hasContextId? 1, contextID = 0, MemCmd: ReadReq, Size: 8, CmdDir: 1
system.cpu.icache.cpu_side::recvTimingReq: hasPC? 1, PC = 225217352320, hasContextId? 1, contextID = 0, Vaddr: 225217352320, Paddr: 107136
system.cpu.dcache.cpu_side::recvTimingReq: hasPC? 1, PC = 225217352208, hasContextId? 1, contextID = 0, MemCmd: ReadReq, Size: 8, CmdDir: 1
system.cpu.dcache.cpu_side::recvTimingReq: hasPC? 1, PC = 225217352224, hasContextId? 1, contextID = 0, MemCmd: ReadReq, Size: 8, CmdDir: 1
system.cpu.dcache.cpu_side::recvTimingReq: hasPC? 1, PC = 225217352204, hasContextId? 1, contextID = 0, MemCmd: ReadReq, Size: 8, CmdDir: 1
system.cpu.dcache.cpu_side::recvTimingReq: hasPC? 1, PC = 225217352240, hasContextId? 1, contextID = 0, MemCmd: ReadReq, Size: 8, CmdDir: 1
system.cpu.dcache.cpu_side::recvTimingReq: hasPC? 1, PC = 225217352160, hasContextId? 1, contextID = 0, MemCmd: WriteReq, Size: 8, CmdDir: 1
system.cpu.dcache.cpu_side::recvTimingReq: hasPC? 1, PC = 225217352220, hasContextId? 1, contextID = 0, MemCmd: ReadReq, Size: 8, CmdDir: 1
system.cpu.icache.cpu_side::recvTimingReq: hasPC? 1, PC = 225217352132, hasContextId? 1, contextID = 0, Vaddr: 225217352128, Paddr: 106944
system.cpu.icache.cpu_side::recvTimingReq: hasPC? 1, PC = 225217352192, hasContextId? 1, contextID = 0, Vaddr: 225217352192, Paddr: 107008
system.cpu.icache.cpu_side::recvTimingReq: hasPC? 1, PC = 225217352256, hasContextId? 1, contextID = 0, Vaddr: 225217352256, Paddr: 107072
system.cpu.dcache.cpu_side::recvTimingReq: hasPC? 1, PC = 225217352168, hasContextId? 1, contextID = 0, MemCmd: ReadReq, Size: 8, CmdDir: 1
system.cpu.dcache.cpu_side::recvTimingReq: hasPC? 1, PC = 225217352176, hasContextId? 1, contextID = 0, MemCmd: ReadReq, Size: 8, CmdDir: 1
system.cpu.icache.cpu_side::recvTimingReq: hasPC? 1, PC = 225217352912, hasContextId? 1, contextID = 0, Vaddr: 225217352896, Paddr: 107712
system.cpu.icache.cpu_side::recvTimingReq: hasPC? 1, PC = 225217352959, hasContextId? 1, contextID = 0, Vaddr: 225217352960, Paddr: 107776
system.cpu.icache.cpu_side::recvTimingReq: hasPC? 1, PC = 225217353022, hasContextId? 1, contextID = 0, Vaddr: 225217353024, Paddr: 107840
system.cpu.icache.cpu_side::recvTimingReq: hasPC? 1, PC = 225217352944, hasContextId? 1, contextID = 0, Vaddr: 225217352896, Paddr: 107712
system.cpu.icache.cpu_side::recvTimingReq: hasPC? 1, PC = 225217352959, hasContextId? 1, contextID = 0, Vaddr: 225217352960, Paddr: 107776
system.cpu.icache.cpu_side::recvTimingReq: hasPC? 1, PC = 225217353022, hasContextId? 1, contextID = 0, Vaddr: 225217353024, Paddr: 107840
system.cpu.icache.cpu_side::recvTimingReq: hasPC? 1, PC = 225217353088, hasContextId? 1, contextID = 0, Vaddr: 225217353088, Paddr: 107904
system.cpu.icache.cpu_side::recvTimingReq: hasPC? 1, PC = 225217352120, hasContextId? 1, contextID = 0, Vaddr: 225217352064, Paddr: 106880
system.cpu.icache.cpu_side::recvTimingReq: hasPC? 1, PC = 225217352127, hasContextId? 1, contextID = 0, Vaddr: 225217352128, Paddr: 106944
system.cpu.dcache.cpu_side::recvTimingReq: hasPC? 1, PC = 225217352962, hasContextId? 1, contextID = 0, MemCmd: WriteReq, Size: 8, CmdDir: 1
system.cpu.icache.cpu_side::recvTimingReq: hasPC? 1, PC = 225217352192, hasContextId? 1, contextID = 0, Vaddr: 225217352192, Paddr: 107008
system.cpu.dcache.cpu_side::recvTimingReq: hasPC? 1, PC = 225217352124, hasContextId? 1, contextID = 0, MemCmd: ReadReq, Size: 8, CmdDir: 1
system.cpu.icache.cpu_side::recvTimingReq: hasPC? 1, PC = 225217352256, hasContextId? 1, contextID = 0, Vaddr: 225217352256, Paddr: 107072
system.cpu.dcache.cpu_side::recvTimingReq: hasPC? 1, PC = 225217352168, hasContextId? 1, contextID = 0, MemCmd: ReadReq, Size: 8, CmdDir: 1
system.cpu.dcache.cpu_side::recvTimingReq: hasPC? 1, PC = 225217352176, hasContextId? 1, contextID = 0, MemCmd: ReadReq, Size: 8, CmdDir: 1
system.cpu.dcache.cpu_side::recvTimingReq: hasPC? 1, PC = 225217352192, hasContextId? 1, contextID = 0, MemCmd: ReadReq, Size: 8, CmdDir: 1
system.cpu.dcache.cpu_side::recvTimingReq: hasPC? 1, PC = 225217352208, hasContextId? 1, contextID = 0, MemCmd: ReadReq, Size: 8, CmdDir: 1
system.cpu.dcache.cpu_side::recvTimingReq: hasPC? 1, PC = 225217352224, hasContextId? 1, contextID = 0, MemCmd: ReadReq, Size: 8, CmdDir: 1
system.cpu.icache.cpu_side::recvTimingReq: hasPC? 1, PC = 225217352320, hasContextId? 1, contextID = 0, Vaddr: 225217352320, Paddr: 107136
system.cpu.dcache.cpu_side::recvTimingReq: hasPC? 1, PC = 225217352204, hasContextId? 1, contextID = 0, MemCmd: ReadReq, Size: 8, CmdDir: 1
system.cpu.dcache.cpu_side::recvTimingReq: hasPC? 1, PC = 225217352240, hasContextId? 1, contextID = 0, MemCmd: ReadReq, Size: 8, CmdDir: 1
system.cpu.dcache.cpu_side::recvTimingReq: hasPC? 1, PC = 225217352220, hasContextId? 1, contextID = 0, MemCmd: ReadReq, Size: 8, CmdDir: 1
system.cpu.dcache.cpu_side::recvTimingReq: hasPC? 1, PC = 225217352236, hasContextId? 1, contextID = 0, MemCmd: ReadReq, Size: 8, CmdDir: 1
system.cpu.dcache.cpu_side::recvTimingReq: hasPC? 1, PC = 225217352256, hasContextId? 1, contextID = 0, MemCmd: ReadReq, Size: 8, CmdDir: 1
system.cpu.dcache.cpu_side::recvTimingReq: hasPC? 1, PC = 225217352272, hasContextId? 1, contextID = 0, MemCmd: ReadReq, Size: 8, CmdDir: 1
system.cpu.dcache.cpu_side::recvTimingReq: hasPC? 1, PC = 225217352252, hasContextId? 1, contextID = 0, MemCmd: ReadReq, Size: 8, CmdDir: 1
system.cpu.dcache.cpu_side::recvTimingReq: hasPC? 1, PC = 225217352288, hasContextId? 1, contextID = 0, MemCmd: ReadReq, Size: 8, CmdDir: 1
system.cpu.icache.cpu_side::recvTimingReq: hasPC? 1, PC = 225217352383, hasContextId? 1, contextID = 0, Vaddr: 225217352384, Paddr: 107200
system.cpu.dcache.cpu_side::recvTimingReq: hasPC? 1, PC = 225217352304, hasContextId? 1, contextID = 0, MemCmd: ReadReq, Size: 8, CmdDir: 1
system.cpu.dcache.cpu_side::recvTimingReq: hasPC? 1, PC = 225217352268, hasContextId? 1, contextID = 0, MemCmd: ReadReq, Size: 8, CmdDir: 1
system.cpu.dcache.cpu_side::recvTimingReq: hasPC? 1, PC = 225217352284, hasContextId? 1, contextID = 0, MemCmd: ReadReq, Size: 8, CmdDir: 1
system.cpu.icache.cpu_side::recvTimingReq: hasPC? 1, PC = 225217352545, hasContextId? 1, contextID = 0, Vaddr: 225217352512, Paddr: 107328
system.cpu.dcache.cpu_side::recvTimingReq: hasPC? 1, PC = 225217352316, hasContextId? 1, contextID = 0, MemCmd: ReadReq, Size: 8, CmdDir: 1
system.cpu.dcache.cpu_side::recvTimingReq: hasPC? 1, PC = 225217352333, hasContextId? 1, contextID = 0, MemCmd: ReadReq, Size: 8, CmdDir: 1
system.cpu.icache.cpu_side::recvTimingReq: hasPC? 1, PC = 225217352576, hasContextId? 1, contextID = 0, Vaddr: 225217352576, Paddr: 107392
system.cpu.dcache.cpu_side::recvTimingReq: hasPC? 1, PC = 225217352347, hasContextId? 1, contextID = 0, MemCmd: ReadReq, Size: 8, CmdDir: 1
system.cpu.dcache.cpu_side::recvTimingReq: hasPC? 1, PC = 225217352340, hasContextId? 1, contextID = 0, MemCmd: ReadReq, Size: 8, CmdDir: 1
system.cpu.dcache.cpu_side::recvTimingReq: hasPC? 1, PC = 225217352357, hasContextId? 1, contextID = 0, MemCmd: ReadReq, Size: 8, CmdDir: 1
system.cpu.dcache.cpu_side::recvTimingReq: hasPC? 1, PC = 225217352368, hasContextId? 1, contextID = 0, MemCmd: ReadReq, Size: 8, CmdDir: 1
system.cpu.icache.cpu_side::recvTimingReq: hasPC? 1, PC = 225217352300, hasContextId? 1, contextID = 0, Vaddr: 225217352256, Paddr: 107072
system.cpu.icache.cpu_side::recvTimingReq: hasPC? 1, PC = 225217352320, hasContextId? 1, contextID = 0, Vaddr: 225217352320, Paddr: 107136
system.cpu.icache.cpu_side::recvTimingReq: hasPC? 1, PC = 225217352383, hasContextId? 1, contextID = 0, Vaddr: 225217352384, Paddr: 107200
system.cpu.dcache.cpu_side::recvTimingReq: hasPC? 1, PC = 225217352300, hasContextId? 1, contextID = 0, MemCmd: ReadReq, Size: 8, CmdDir: 1
system.cpu.dcache.cpu_side::recvTimingReq: hasPC? 1, PC = 225217352304, hasContextId? 1, contextID = 0, MemCmd: ReadReq, Size: 8, CmdDir: 1
system.cpu.icache.cpu_side::recvTimingReq: hasPC? 1, PC = 225217352448, hasContextId? 1, contextID = 0, Vaddr: 225217352448, Paddr: 107264
system.cpu.dcache.cpu_side::recvTimingReq: hasPC? 1, PC = 225217352316, hasContextId? 1, contextID = 0, MemCmd: ReadReq, Size: 8, CmdDir: 1
system.cpu.dcache.cpu_side::recvTimingReq: hasPC? 1, PC = 225217352333, hasContextId? 1, contextID = 0, MemCmd: ReadReq, Size: 8, CmdDir: 1
system.cpu.dcache.cpu_side::recvTimingReq: hasPC? 1, PC = 225217352347, hasContextId? 1, contextID = 0, MemCmd: ReadReq, Size: 8, CmdDir: 1
system.cpu.dcache.cpu_side::recvTimingReq: hasPC? 1, PC = 225217352357, hasContextId? 1, contextID = 0, MemCmd: ReadReq, Size: 8, CmdDir: 1
system.cpu.dcache.cpu_side::recvTimingReq: hasPC? 1, PC = 225217352368, hasContextId? 1, contextID = 0, MemCmd: ReadReq, Size: 8, CmdDir: 1
system.cpu.icache.cpu_side::recvTimingReq: hasPC? 1, PC = 225217352512, hasContextId? 1, contextID = 0, Vaddr: 225217352512, Paddr: 107328
system.cpu.dcache.cpu_side::recvTimingReq: hasPC? 1, PC = 225217352340, hasContextId? 1, contextID = 0, MemCmd: ReadReq, Size: 8, CmdDir: 1
system.cpu.dcache.cpu_side::recvTimingReq: hasPC? 1, PC = 225217352364, hasContextId? 1, contextID = 0, MemCmd: ReadReq, Size: 8, CmdDir: 1
system.cpu.dcache.cpu_side::recvTimingReq: hasPC? 1, PC = 225217352405, hasContextId? 1, contextID = 0, MemCmd: ReadReq, Size: 4, CmdDir: 1
system.cpu.icache.cpu_side::recvTimingReq: hasPC? 1, PC = 225217352912, hasContextId? 1, contextID = 0, Vaddr: 225217352896, Paddr: 107712
system.cpu.icache.cpu_side::recvTimingReq: hasPC? 1, PC = 225217352959, hasContextId? 1, contextID = 0, Vaddr: 225217352960, Paddr: 107776
system.cpu.icache.cpu_side::recvTimingReq: hasPC? 1, PC = 225217353022, hasContextId? 1, contextID = 0, Vaddr: 225217353024, Paddr: 107840
system.cpu.icache.cpu_side::recvTimingReq: hasPC? 1, PC = 225217353088, hasContextId? 1, contextID = 0, Vaddr: 225217353088, Paddr: 107904
system.cpu.icache.cpu_side::recvTimingReq: hasPC? 1, PC = 225217352944, hasContextId? 1, contextID = 0, Vaddr: 225217352896, Paddr: 107712
system.cpu.icache.cpu_side::recvTimingReq: hasPC? 1, PC = 225217352959, hasContextId? 1, contextID = 0, Vaddr: 225217352960, Paddr: 107776
system.cpu.icache.cpu_side::recvTimingReq: hasPC? 1, PC = 225217353022, hasContextId? 1, contextID = 0, Vaddr: 225217353024, Paddr: 107840
system.cpu.icache.cpu_side::recvTimingReq: hasPC? 1, PC = 225217353088, hasContextId? 1, contextID = 0, Vaddr: 225217353088, Paddr: 107904
system.cpu.icache.cpu_side::recvTimingReq: hasPC? 1, PC = 225217352120, hasContextId? 1, contextID = 0, Vaddr: 225217352064, Paddr: 106880
system.cpu.icache.cpu_side::recvTimingReq: hasPC? 1, PC = 225217352127, hasContextId? 1, contextID = 0, Vaddr: 225217352128, Paddr: 106944
system.cpu.icache.cpu_side::recvTimingReq: hasPC? 1, PC = 225217352192, hasContextId? 1, contextID = 0, Vaddr: 225217352192, Paddr: 107008
system.cpu.dcache.cpu_side::recvTimingReq: hasPC? 1, PC = 225217352124, hasContextId? 1, contextID = 0, MemCmd: ReadReq, Size: 8, CmdDir: 1
system.cpu.icache.cpu_side::recvTimingReq: hasPC? 1, PC = 225217352256, hasContextId? 1, contextID = 0, Vaddr: 225217352256, Paddr: 107072
system.cpu.dcache.cpu_side::recvTimingReq: hasPC? 1, PC = 225217352168, hasContextId? 1, contextID = 0, MemCmd: ReadReq, Size: 8, CmdDir: 1
system.cpu.dcache.cpu_side::recvTimingReq: hasPC? 1, PC = 225217352176, hasContextId? 1, contextID = 0, MemCmd: ReadReq, Size: 8, CmdDir: 1
system.cpu.icache.cpu_side::recvTimingReq: hasPC? 1, PC = 225217352176, hasContextId? 1, contextID = 0, Vaddr: 225217352128, Paddr: 106944
system.cpu.icache.cpu_side::recvTimingReq: hasPC? 1, PC = 225217352192, hasContextId? 1, contextID = 0, Vaddr: 225217352192, Paddr: 107008
system.cpu.dcache.cpu_side::recvTimingReq: hasPC? 1, PC = 225217352962, hasContextId? 1, contextID = 0, MemCmd: WriteReq, Size: 8, CmdDir: 1
system.cpu.icache.cpu_side::recvTimingReq: hasPC? 1, PC = 225217352256, hasContextId? 1, contextID = 0, Vaddr: 225217352256, Paddr: 107072
system.cpu.dcache.cpu_side::recvTimingReq: hasPC? 1, PC = 225217352176, hasContextId? 1, contextID = 0, MemCmd: ReadReq, Size: 8, CmdDir: 1
system.cpu.dcache.cpu_side::recvTimingReq: hasPC? 1, PC = 225217352192, hasContextId? 1, contextID = 0, MemCmd: ReadReq, Size: 8, CmdDir: 1
system.cpu.icache.cpu_side::recvTimingReq: hasPC? 1, PC = 225217352320, hasContextId? 1, contextID = 0, Vaddr: 225217352320, Paddr: 107136
system.cpu.dcache.cpu_side::recvTimingReq: hasPC? 1, PC = 225217352208, hasContextId? 1, contextID = 0, MemCmd: ReadReq, Size: 8, CmdDir: 1
system.cpu.dcache.cpu_side::recvTimingReq: hasPC? 1, PC = 225217352224, hasContextId? 1, contextID = 0, MemCmd: ReadReq, Size: 8, CmdDir: 1
system.cpu.dcache.cpu_side::recvTimingReq: hasPC? 1, PC = 225217352204, hasContextId? 1, contextID = 0, MemCmd: ReadReq, Size: 8, CmdDir: 1
system.cpu.dcache.cpu_side::recvTimingReq: hasPC? 1, PC = 225217352240, hasContextId? 1, contextID = 0, MemCmd: ReadReq, Size: 8, CmdDir: 1
system.cpu.icache.cpu_side::recvTimingReq: hasPC? 1, PC = 225217353008, hasContextId? 1, contextID = 0, Vaddr: 225217352960, Paddr: 107776
system.cpu.icache.cpu_side::recvTimingReq: hasPC? 1, PC = 225217353022, hasContextId? 1, contextID = 0, Vaddr: 225217353024, Paddr: 107840
system.cpu.icache.cpu_side::recvTimingReq: hasPC? 1, PC = 225217353088, hasContextId? 1, contextID = 0, Vaddr: 225217353088, Paddr: 107904
system.cpu.icache.cpu_side::recvTimingReq: hasPC? 1, PC = 225217353149, hasContextId? 1, contextID = 0, Vaddr: 225217353152, Paddr: 107968
system.cpu.dcache.cpu_side::recvTimingReq: hasPC? 1, PC = 225217353008, hasContextId? 1, contextID = 0, MemCmd: ReadReq, Size: 8, CmdDir: 1
system.cpu.dcache.cpu_side::recvTimingReq: hasPC? 1, PC = 225217353022, hasContextId? 1, contextID = 0, MemCmd: ReadReq, Size: 8, CmdDir: 1
system.cpu.dcache.cpu_side::recvTimingReq: hasPC? 1, PC = 225217353029, hasContextId? 1, contextID = 0, MemCmd: ReadReq, Size: 8, CmdDir: 1
system.cpu.dcache.cpu_side::recvTimingReq: hasPC? 1, PC = 225217353069, hasContextId? 1, contextID = 0, MemCmd: ReadReq, Size: 8, CmdDir: 1
system.cpu.icache.cpu_side::recvTimingReq: hasPC? 1, PC = 225217352320, hasContextId? 1, contextID = 0, Vaddr: 225217352320, Paddr: 107136
system.cpu.icache.cpu_side::recvTimingReq: hasPC? 1, PC = 225217352550, hasContextId? 1, contextID = 0, Vaddr: 225217352512, Paddr: 107328
system.cpu.icache.cpu_side::recvTimingReq: hasPC? 1, PC = 225217352576, hasContextId? 1, contextID = 0, Vaddr: 225217352576, Paddr: 107392
system.cpu.dcache.cpu_side::recvTimingReq: hasPC? 1, PC = 225217352550, hasContextId? 1, contextID = 0, MemCmd: ReadReq, Size: 1, CmdDir: 1
system.cpu.dcache.cpu_side::recvTimingReq: hasPC? 1, PC = 225217352557, hasContextId? 1, contextID = 0, MemCmd: ReadReq, Size: 8, CmdDir: 1
system.cpu.icache.cpu_side::recvTimingReq: hasPC? 1, PC = 225217352638, hasContextId? 1, contextID = 0, Vaddr: 225217352640, Paddr: 107456
system.cpu.dcache.cpu_side::recvTimingReq: hasPC? 1, PC = 225217352550, hasContextId? 1, contextID = 0, MemCmd: WriteReq, Size: 1, CmdDir: 1
system.cpu.icache.cpu_side::recvTimingReq: hasPC? 1, PC = 225217352704, hasContextId? 1, contextID = 0, Vaddr: 225217352704, Paddr: 107520
system.cpu.icache.cpu_side::recvTimingReq: hasPC? 1, PC = 225217352767, hasContextId? 1, contextID = 0, Vaddr: 225217352768, Paddr: 107584
system.cpu.dcache.cpu_side::recvTimingReq: hasPC? 1, PC = 225217352753, hasContextId? 1, contextID = 0, MemCmd: WriteReq, Size: 8, CmdDir: 1
system.cpu.icache.cpu_side::recvTimingReq: hasPC? 1, PC = 225217352830, hasContextId? 1, contextID = 0, Vaddr: 225217352832, Paddr: 107648
system.cpu.icache.cpu_side::recvTimingReq: hasPC? 1, PC = 225217385184, hasContextId? 1, contextID = 0, Vaddr: 225217385152, Paddr: 139968
system.cpu.dcache.cpu_side::recvTimingReq: hasPC? 1, PC = 225217352767, hasContextId? 1, contextID = 0, MemCmd: WriteReq, Size: 8, CmdDir: 1
system.cpu.icache.cpu_side::recvTimingReq: hasPC? 1, PC = 225217385214, hasContextId? 1, contextID = 0, Vaddr: 225217385216, Paddr: 140032
system.cpu.dcache.cpu_side::recvTimingReq: hasPC? 1, PC = 225217385184, hasContextId? 1, contextID = 0, MemCmd: ReadReq, Size: 8, CmdDir: 1
system.cpu.dcache.cpu_side::recvTimingReq: hasPC? 1, PC = 225217385196, hasContextId? 1, contextID = 0, MemCmd: ReadReq, Size: 8, CmdDir: 1
system.cpu.dcache.cpu_side::recvTimingReq: hasPC? 1, PC = 225217385200, hasContextId? 1, contextID = 0, MemCmd: ReadReq, Size: 4, CmdDir: 1
system.cpu.dcache.cpu_side::recvTimingReq: hasPC? 1, PC = 225217385208, hasContextId? 1, contextID = 0, MemCmd: ReadReq, Size: 4, CmdDir: 1
system.cpu.dcache.cpu_side::recvTimingReq: hasPC? 1, PC = 225217385211, hasContextId? 1, contextID = 0, MemCmd: ReadReq, Size: 4, CmdDir: 1
system.cpu.icache.cpu_side::recvTimingReq: hasPC? 1, PC = 225217385276, hasContextId? 1, contextID = 0, Vaddr: 225217385280, Paddr: 140096
system.cpu.dcache.cpu_side::recvTimingReq: hasPC? 1, PC = 225217385229, hasContextId? 1, contextID = 0, MemCmd: ReadReq, Size: 4, CmdDir: 1
system.cpu.dcache.cpu_side::recvTimingReq: hasPC? 1, PC = 225217385202, hasContextId? 1, contextID = 0, MemCmd: WriteReq, Size: 4, CmdDir: 1
system.cpu.dcache.cpu_side::recvTimingReq: hasPC? 1, PC = 225217385222, hasContextId? 1, contextID = 0, MemCmd: WriteReq, Size: 4, CmdDir: 1
system.cpu.dcache.cpu_side::recvTimingReq: hasPC? 1, PC = 225217385237, hasContextId? 1, contextID = 0, MemCmd: WriteReq, Size: 8, CmdDir: 1
system.cpu.dcache.cpu_side::recvTimingReq: hasPC? 1, PC = 225217385248, hasContextId? 1, contextID = 0, MemCmd: WriteReq, Size: 8, CmdDir: 1
system.cpu.dcache.cpu_side::recvTimingReq: hasPC? 1, PC = 225217385266, hasContextId? 1, contextID = 0, MemCmd: WriteReq, Size: 4, CmdDir: 1
system.cpu.dcache.cpu_side::recvTimingReq: hasPC? 1, PC = 225217385283, hasContextId? 1, contextID = 0, MemCmd: ReadReq, Size: 8, CmdDir: 1
system.cpu.dcache.cpu_side::recvTimingReq: hasPC? 1, PC = 225217385276, hasContextId? 1, contextID = 0, MemCmd: WriteReq, Size: 8, CmdDir: 1
system.cpu.icache.cpu_side::recvTimingReq: hasPC? 1, PC = 225217352772, hasContextId? 1, contextID = 0, Vaddr: 225217352768, Paddr: 107584
system.cpu.icache.cpu_side::recvTimingReq: hasPC? 1, PC = 225217352830, hasContextId? 1, contextID = 0, Vaddr: 225217352832, Paddr: 107648
system.cpu.icache.cpu_side::recvTimingReq: hasPC? 1, PC = 225217352893, hasContextId? 1, contextID = 0, Vaddr: 225217352896, Paddr: 107712
system.cpu.dcache.cpu_side::recvTimingReq: hasPC? 1, PC = 225217352793, hasContextId? 1, contextID = 0, MemCmd: WriteReq, Size: 8, CmdDir: 1
system.cpu.dcache.cpu_side::recvTimingReq: hasPC? 1, PC = 225217352807, hasContextId? 1, contextID = 0, MemCmd: WriteReq, Size: 8, CmdDir: 1
system.cpu.icache.cpu_side::recvTimingReq: hasPC? 1, PC = 225217437696, hasContextId? 1, contextID = 0, Vaddr: 225217437696, Paddr: 192512
system.cpu.dcache.cpu_side::recvTimingReq: hasPC? 1, PC = 225217352814, hasContextId? 1, contextID = 0, MemCmd: WriteReq, Size: 8, CmdDir: 1
system.cpu.dcache.cpu_side::recvTimingReq: hasPC? 1, PC = 225217352821, hasContextId? 1, contextID = 0, MemCmd: WriteReq, Size: 8, CmdDir: 1
system.cpu.dcache.cpu_side::recvTimingReq: hasPC? 1, PC = 225217352849, hasContextId? 1, contextID = 0, MemCmd: WriteReq, Size: 8, CmdDir: 1
system.cpu.dcache.cpu_side::recvTimingReq: hasPC? 1, PC = 225217352856, hasContextId? 1, contextID = 0, MemCmd: WriteReq, Size: 8, CmdDir: 1
system.cpu.icache.cpu_side::recvTimingReq: hasPC? 1, PC = 225217437760, hasContextId? 1, contextID = 0, Vaddr: 225217437760, Paddr: 192576
system.cpu.dcache.cpu_side::recvTimingReq: hasPC? 1, PC = 225217437713, hasContextId? 1, contextID = 0, MemCmd: ReadReq, Size: 8, CmdDir: 1
system.cpu.dcache.cpu_side::recvTimingReq: hasPC? 1, PC = 225217437747, hasContextId? 1, contextID = 0, MemCmd: ReadReq, Size: 8, CmdDir: 1
system.cpu.dcache.cpu_side::recvTimingReq: hasPC? 1, PC = 225217352863, hasContextId? 1, contextID = 0, MemCmd: WriteReq, Size: 8, CmdDir: 1
system.cpu.dcache.cpu_side::recvTimingReq: hasPC? 1, PC = 225217437696, hasContextId? 1, contextID = 0, MemCmd: WriteReq, Size: 8, CmdDir: 1
system.cpu.dcache.cpu_side::recvTimingReq: hasPC? 1, PC = 225217437698, hasContextId? 1, contextID = 0, MemCmd: WriteReq, Size: 8, CmdDir: 1
system.cpu.icache.cpu_side::recvTimingReq: hasPC? 1, PC = 225217437822, hasContextId? 1, contextID = 0, Vaddr: 225217437824, Paddr: 192640
system.cpu.dcache.cpu_side::recvTimingReq: hasPC? 1, PC = 225217437764, hasContextId? 1, contextID = 0, MemCmd: ReadReq, Size: 8, CmdDir: 1
system.cpu.dcache.cpu_side::recvTimingReq: hasPC? 1, PC = 225217437802, hasContextId? 1, contextID = 0, MemCmd: ReadReq, Size: 8, CmdDir: 1
system.cpu.icache.cpu_side::recvTimingReq: hasPC? 1, PC = 225217437770, hasContextId? 1, contextID = 0, Vaddr: 225217437760, Paddr: 192576
system.cpu.icache.cpu_side::recvTimingReq: hasPC? 1, PC = 225217437822, hasContextId? 1, contextID = 0, Vaddr: 225217437824, Paddr: 192640
system.cpu.dcache.cpu_side::recvTimingReq: hasPC? 1, PC = 225217437802, hasContextId? 1, contextID = 0, MemCmd: ReadReq, Size: 8, CmdDir: 1
system.cpu.dcache.cpu_side::recvTimingReq: hasPC? 1, PC = 225217437700, hasContextId? 1, contextID = 0, MemCmd: WriteReq, Size: 8, CmdDir: 1
system.cpu.dcache.cpu_side::recvTimingReq: hasPC? 1, PC = 225217437702, hasContextId? 1, contextID = 0, MemCmd: WriteReq, Size: 8, CmdDir: 1
system.cpu.dcache.cpu_side::recvTimingReq: hasPC? 1, PC = 225217437704, hasContextId? 1, contextID = 0, MemCmd: WriteReq, Size: 8, CmdDir: 1
system.cpu.dcache.cpu_side::recvTimingReq: hasPC? 1, PC = 225217437708, hasContextId? 1, contextID = 0, MemCmd: WriteReq, Size: 8, CmdDir: 1
system.cpu.dcache.cpu_side::recvTimingReq: hasPC? 1, PC = 225217437716, hasContextId? 1, contextID = 0, MemCmd: WriteReq, Size: 8, CmdDir: 1
system.cpu.dcache.cpu_side::recvTimingReq: hasPC? 1, PC = 225217437727, hasContextId? 1, contextID = 0, MemCmd: WriteReq, Size: 8, CmdDir: 1
system.cpu.dcache.cpu_side::recvTimingReq: hasPC? 1, PC = 225217437734, hasContextId? 1, contextID = 0, MemCmd: WriteReq, Size: 4, CmdDir: 1
system.cpu.dcache.cpu_side::recvTimingReq: hasPC? 1, PC = 225217437751, hasContextId? 1, contextID = 0, MemCmd: WriteReq, Size: 8, CmdDir: 1
system.cpu.icache.cpu_side::recvTimingReq: hasPC? 1, PC = 225217437888, hasContextId? 1, contextID = 0, Vaddr: 225217437888, Paddr: 192704
system.cpu.dcache.cpu_side::recvTimingReq: hasPC? 1, PC = 225217437822, hasContextId? 1, contextID = 0, MemCmd: ReadReq, Size: 2, CmdDir: 1
system.cpu.dcache.cpu_side::recvTimingReq: hasPC? 1, PC = 225217437830, hasContextId? 1, contextID = 0, MemCmd: ReadReq, Size: 8, CmdDir: 1
system.cpu.dcache.cpu_side::recvTimingReq: hasPC? 1, PC = 225217437844, hasContextId? 1, contextID = 0, MemCmd: ReadReq, Size: 4, CmdDir: 1
system.cpu.dcache.cpu_side::recvTimingReq: hasPC? 1, PC = 225217437851, hasContextId? 1, contextID = 0, MemCmd: ReadReq, Size: 8, CmdDir: 1
system.cpu.dcache.cpu_side::recvTimingReq: hasPC? 1, PC = 225217437861, hasContextId? 1, contextID = 0, MemCmd: ReadReq, Size: 4, CmdDir: 1
system.cpu.dcache.cpu_side::recvTimingReq: hasPC? 1, PC = 225217437868, hasContextId? 1, contextID = 0, MemCmd: ReadReq, Size: 8, CmdDir: 1
system.cpu.dcache.cpu_side::recvTimingReq: hasPC? 1, PC = 225217437875, hasContextId? 1, contextID = 0, MemCmd: ReadReq, Size: 8, CmdDir: 1
system.cpu.dcache.cpu_side::recvTimingReq: hasPC? 1, PC = 225217437786, hasContextId? 1, contextID = 0, MemCmd: WriteReq, Size: 8, CmdDir: 1
system.cpu.dcache.cpu_side::recvTimingReq: hasPC? 1, PC = 225217437797, hasContextId? 1, contextID = 0, MemCmd: WriteReq, Size: 8, CmdDir: 1
system.cpu.dcache.cpu_side::recvTimingReq: hasPC? 1, PC = 225217437806, hasContextId? 1, contextID = 0, MemCmd: WriteReq, Size: 8, CmdDir: 1
system.cpu.icache.cpu_side::recvTimingReq: hasPC? 1, PC = 225217437948, hasContextId? 1, contextID = 0, Vaddr: 225217437952, Paddr: 192768
system.cpu.dcache.cpu_side::recvTimingReq: hasPC? 1, PC = 225217437912, hasContextId? 1, contextID = 0, MemCmd: ReadReq, Size: 8, CmdDir: 1
system.cpu.dcache.cpu_side::recvTimingReq: hasPC? 1, PC = 225217437898, hasContextId? 1, contextID = 0, MemCmd: ReadReq, Size: 4, CmdDir: 1
system.cpu.dcache.cpu_side::recvTimingReq: hasPC? 1, PC = 225217437924, hasContextId? 1, contextID = 0, MemCmd: ReadReq, Size: 8, CmdDir: 1
system.cpu.icache.cpu_side::recvTimingReq: hasPC? 1, PC = 225217437888, hasContextId? 1, contextID = 0, Vaddr: 225217437888, Paddr: 192704
system.cpu.icache.cpu_side::recvTimingReq: hasPC? 1, PC = 225217437948, hasContextId? 1, contextID = 0, Vaddr: 225217437952, Paddr: 192768
system.cpu.dcache.cpu_side::recvTimingReq: hasPC? 1, PC = 225217437912, hasContextId? 1, contextID = 0, MemCmd: ReadReq, Size: 8, CmdDir: 1
system.cpu.dcache.cpu_side::recvTimingReq: hasPC? 1, PC = 225217437898, hasContextId? 1, contextID = 0, MemCmd: ReadReq, Size: 4, CmdDir: 1
system.cpu.dcache.cpu_side::recvTimingReq: hasPC? 1, PC = 225217437924, hasContextId? 1, contextID = 0, MemCmd: ReadReq, Size: 8, CmdDir: 1
system.cpu.icache.cpu_side::recvTimingReq: hasPC? 1, PC = 225217437888, hasContextId? 1, contextID = 0, Vaddr: 225217437888, Paddr: 192704
system.cpu.icache.cpu_side::recvTimingReq: hasPC? 1, PC = 225217437948, hasContextId? 1, contextID = 0, Vaddr: 225217437952, Paddr: 192768
system.cpu.dcache.cpu_side::recvTimingReq: hasPC? 1, PC = 225217437912, hasContextId? 1, contextID = 0, MemCmd: ReadReq, Size: 8, CmdDir: 1
system.cpu.dcache.cpu_side::recvTimingReq: hasPC? 1, PC = 225217437898, hasContextId? 1, contextID = 0, MemCmd: ReadReq, Size: 4, CmdDir: 1
system.cpu.dcache.cpu_side::recvTimingReq: hasPC? 1, PC = 225217437924, hasContextId? 1, contextID = 0, MemCmd: ReadReq, Size: 8, CmdDir: 1
system.cpu.dcache.cpu_side::recvTimingReq: hasPC? 1, PC = 225217437912, hasContextId? 1, contextID = 0, MemCmd: ReadReq, Size: 8, CmdDir: 1
system.cpu.dcache.cpu_side::recvTimingReq: hasPC? 1, PC = 225217437924, hasContextId? 1, contextID = 0, MemCmd: ReadReq, Size: 8, CmdDir: 1
system.cpu.icache.cpu_side::recvTimingReq: hasPC? 1, PC = 225217438015, hasContextId? 1, contextID = 0, Vaddr: 225217438016, Paddr: 192832
system.cpu.icache.cpu_side::recvTimingReq: hasPC? 1, PC = 225217440000, hasContextId? 1, contextID = 0, Vaddr: 225217440000, Paddr: 194816
system.cpu.icache.cpu_side::recvTimingReq: hasPC? 1, PC = 225217438120, hasContextId? 1, contextID = 0, Vaddr: 225217438080, Paddr: 192896
system.cpu.icache.cpu_side::recvTimingReq: hasPC? 1, PC = 225217438140, hasContextId? 1, contextID = 0, Vaddr: 225217438144, Paddr: 192960
system.cpu.dcache.cpu_side::recvTimingReq: hasPC? 1, PC = 225217438120, hasContextId? 1, contextID = 0, MemCmd: ReadReq, Size: 8, CmdDir: 1
system.cpu.dcache.cpu_side::recvTimingReq: hasPC? 1, PC = 225217438128, hasContextId? 1, contextID = 0, MemCmd: ReadReq, Size: 8, CmdDir: 1
system.cpu.icache.cpu_side::recvTimingReq: hasPC? 1, PC = 225217437888, hasContextId? 1, contextID = 0, Vaddr: 225217437888, Paddr: 192704
system.cpu.dcache.cpu_side::recvTimingReq: hasPC? 1, PC = 225217437912, hasContextId? 1, contextID = 0, MemCmd: ReadReq, Size: 8, CmdDir: 1
system.cpu.dcache.cpu_side::recvTimingReq: hasPC? 1, PC = 225217437898, hasContextId? 1, contextID = 0, MemCmd: ReadReq, Size: 4, CmdDir: 1
system.cpu.dcache.cpu_side::recvTimingReq: hasPC? 1, PC = 225217437924, hasContextId? 1, contextID = 0, MemCmd: ReadReq, Size: 8, CmdDir: 1
system.cpu.icache.cpu_side::recvTimingReq: hasPC? 1, PC = 225217437948, hasContextId? 1, contextID = 0, Vaddr: 225217437952, Paddr: 192768
system.cpu.dcache.cpu_side::recvTimingReq: hasPC? 1, PC = 225217437912, hasContextId? 1, contextID = 0, MemCmd: ReadReq, Size: 8, CmdDir: 1
system.cpu.dcache.cpu_side::recvTimingReq: hasPC? 1, PC = 225217437924, hasContextId? 1, contextID = 0, MemCmd: ReadReq, Size: 8, CmdDir: 1
system.cpu.dcache.cpu_side::recvTimingReq: hasPC? 1, PC = 225217437898, hasContextId? 1, contextID = 0, MemCmd: ReadReq, Size: 4, CmdDir: 1
system.cpu.dcache.cpu_side::recvTimingReq: hasPC? 1, PC = 225217437912, hasContextId? 1, contextID = 0, MemCmd: ReadReq, Size: 8, CmdDir: 1
system.cpu.icache.cpu_side::recvTimingReq: hasPC? 1, PC = 225217438015, hasContextId? 1, contextID = 0, Vaddr: 225217438016, Paddr: 192832
system.cpu.icache.cpu_side::recvTimingReq: hasPC? 1, PC = 225217438280, hasContextId? 1, contextID = 0, Vaddr: 225217438272, Paddr: 193088
system.cpu.icache.cpu_side::recvTimingReq: hasPC? 1, PC = 225217438332, hasContextId? 1, contextID = 0, Vaddr: 225217438336, Paddr: 193152
system.cpu.dcache.cpu_side::recvTimingReq: hasPC? 1, PC = 225217438280, hasContextId? 1, contextID = 0, MemCmd: ReadReq, Size: 8, CmdDir: 1
system.cpu.dcache.cpu_side::recvTimingReq: hasPC? 1, PC = 225217438288, hasContextId? 1, contextID = 0, MemCmd: ReadReq, Size: 8, CmdDir: 1
system.cpu.dcache.cpu_side::recvTimingReq: hasPC? 1, PC = 225217438312, hasContextId? 1, contextID = 0, MemCmd: ReadReq, Size: 8, CmdDir: 1
system.cpu.dcache.cpu_side::recvTimingReq: hasPC? 1, PC = 225217438320, hasContextId? 1, contextID = 0, MemCmd: ReadReq, Size: 8, CmdDir: 1
system.cpu.icache.cpu_side::recvTimingReq: hasPC? 1, PC = 225217437936, hasContextId? 1, contextID = 0, Vaddr: 225217437888, Paddr: 192704
system.cpu.icache.cpu_side::recvTimingReq: hasPC? 1, PC = 225217437948, hasContextId? 1, contextID = 0, Vaddr: 225217437952, Paddr: 192768
system.cpu.icache.cpu_side::recvTimingReq: hasPC? 1, PC = 225217437888, hasContextId? 1, contextID = 0, Vaddr: 225217437888, Paddr: 192704
system.cpu.icache.cpu_side::recvTimingReq: hasPC? 1, PC = 225217437948, hasContextId? 1, contextID = 0, Vaddr: 225217437952, Paddr: 192768
system.cpu.dcache.cpu_side::recvTimingReq: hasPC? 1, PC = 225217437898, hasContextId? 1, contextID = 0, MemCmd: ReadReq, Size: 4, CmdDir: 1
system.cpu.dcache.cpu_side::recvTimingReq: hasPC? 1, PC = 225217437912, hasContextId? 1, contextID = 0, MemCmd: ReadReq, Size: 8, CmdDir: 1
system.cpu.dcache.cpu_side::recvTimingReq: hasPC? 1, PC = 225217437924, hasContextId? 1, contextID = 0, MemCmd: ReadReq, Size: 8, CmdDir: 1
system.cpu.icache.cpu_side::recvTimingReq: hasPC? 1, PC = 225217438015, hasContextId? 1, contextID = 0, Vaddr: 225217438016, Paddr: 192832
system.cpu.dcache.cpu_side::recvTimingReq: hasPC? 1, PC = 225217437912, hasContextId? 1, contextID = 0, MemCmd: ReadReq, Size: 8, CmdDir: 1
system.cpu.dcache.cpu_side::recvTimingReq: hasPC? 1, PC = 225217437924, hasContextId? 1, contextID = 0, MemCmd: ReadReq, Size: 8, CmdDir: 1
system.cpu.dcache.cpu_side::recvTimingReq: hasPC? 1, PC = 225217437898, hasContextId? 1, contextID = 0, MemCmd: ReadReq, Size: 4, CmdDir: 1
system.cpu.icache.cpu_side::recvTimingReq: hasPC? 1, PC = 225217438376, hasContextId? 1, contextID = 0, Vaddr: 225217438336, Paddr: 193152
system.cpu.icache.cpu_side::recvTimingReq: hasPC? 1, PC = 225217438396, hasContextId? 1, contextID = 0, Vaddr: 225217438400, Paddr: 193216
system.cpu.dcache.cpu_side::recvTimingReq: hasPC? 1, PC = 225217438376, hasContextId? 1, contextID = 0, MemCmd: ReadReq, Size: 8, CmdDir: 1
[...]
system.cpu.dcache.cpu_side::recvTimingReq: hasPC? 1, PC = 225217413193, hasContextId? 1, contextID = 0, MemCmd: ReadReq, Size: 4, CmdDir: 1
system.cpu.dcache.cpu_side::recvTimingReq: hasPC? 1, PC = 225217412296, hasContextId? 1, contextID = 0, MemCmd: WriteReq, Size: 8, CmdDir: 1
system.cpu.dcache.cpu_side::recvTimingReq: hasPC? 1, PC = 225217413198, hasContextId? 1, contextID = 0, MemCmd: ReadReq, Size: 2, CmdDir: 1
system.cpu.icache.cpu_side::recvTimingReq: hasPC? 1, PC = 225217412761, hasContextId? 1, contextID = 0, Vaddr: 225217412736, Paddr: 167552
system.cpu.dcache.cpu_side::recvTimingReq: hasPC? 1, PC = 225217413202, hasContextId? 1, contextID = 0, MemCmd: ReadReq, Size: 4, CmdDir: 1
system.cpu.dcache.cpu_side::recvTimingReq: hasPC? 1, PC = 225217413259, hasContextId? 1, contextID = 0, MemCmd: ReadReq, Size: 4, CmdDir: 1
system.cpu.dcache.cpu_side::recvTimingReq: hasPC? 1, PC = 225217412298, hasContextId? 1, contextID = 0, MemCmd: WriteReq, Size: 8, CmdDir: 1
system.cpu.icache.cpu_side::recvTimingReq: hasPC? 1, PC = 225217412800, hasContextId? 1, contextID = 0, Vaddr: 225217412800, Paddr: 167616
system.cpu.dcache.cpu_side::recvTimingReq: hasPC? 1, PC = 225217413239, hasContextId? 1, contextID = 0, MemCmd: ReadReq, Size: 4, CmdDir: 1
system.cpu.dcache.cpu_side::recvTimingReq: hasPC? 1, PC = 225217412303, hasContextId? 1, contextID = 0, MemCmd: WriteReq, Size: 8, CmdDir: 1
system.cpu.icache.cpu_side::recvTimingReq: hasPC? 1, PC = 225217413259, hasContextId? 1, contextID = 0, Vaddr: 225217413248, Paddr: 168064
system.cpu.dcache.cpu_side::recvTimingReq: hasPC? 1, PC = 225217412315, hasContextId? 1, contextID = 0, MemCmd: WriteReq, Size: 4, CmdDir: 1
system.cpu.dcache.cpu_side::recvTimingReq: hasPC? 1, PC = 225217412318, hasContextId? 1, contextID = 0, MemCmd: WriteReq, Size: 4, CmdDir: 1
system.cpu.icache.cpu_side::recvTimingReq: hasPC? 1, PC = 225217413310, hasContextId? 1, contextID = 0, Vaddr: 225217413312, Paddr: 168128
system.cpu.dcache.cpu_side::recvTimingReq: hasPC? 1, PC = 225217412344, hasContextId? 1, contextID = 0, MemCmd: WriteReq, Size: 8, CmdDir: 1
system.cpu.dcache.cpu_side::recvTimingReq: hasPC? 1, PC = 225217412355, hasContextId? 1, contextID = 0, MemCmd: WriteReq, Size: 8, CmdDir: 1
system.cpu.dcache.cpu_side::recvTimingReq: hasPC? 1, PC = 225217412365, hasContextId? 1, contextID = 0, MemCmd: WriteReq, Size: 8, CmdDir: 1
system.cpu.dcache.cpu_side::recvTimingReq: hasPC? 1, PC = 225217413259, hasContextId? 1, contextID = 0, MemCmd: ReadReq, Size: 4, CmdDir: 1
system.cpu.icache.cpu_side::recvTimingReq: hasPC? 1, PC = 225217413375, hasContextId? 1, contextID = 0, Vaddr: 225217413376, Paddr: 168192
system.cpu.dcache.cpu_side::recvTimingReq: hasPC? 1, PC = 225217412911, hasContextId? 1, contextID = 0, MemCmd: WriteReq, Size: 8, CmdDir: 1
system.cpu.dcache.cpu_side::recvTimingReq: hasPC? 1, PC = 225217439504, hasContextId? 1, contextID = 0, MemCmd: WriteReq, Size: 8, CmdDir: 1
system.cpu.icache.cpu_side::recvTimingReq: hasPC? 1, PC = 225217412881, hasContextId? 1, contextID = 0, Vaddr: 225217412864, Paddr: 167680
system.cpu.dcache.cpu_side::recvTimingReq: hasPC? 1, PC = 225217439508, hasContextId? 1, contextID = 0, MemCmd: WriteReq, Size: 8, CmdDir: 1
system.cpu.icache.cpu_side::recvTimingReq: hasPC? 1, PC = 225217413184, hasContextId? 1, contextID = 0, Vaddr: 225217413184, Paddr: 168000
system.cpu.dcache.cpu_side::recvTimingReq: hasPC? 1, PC = 225217439551, hasContextId? 1, contextID = 0, MemCmd: WriteReq, Size: 8, CmdDir: 1
system.cpu.dcache.cpu_side::recvTimingReq: hasPC? 1, PC = 225217439675, hasContextId? 1, contextID = 0, MemCmd: WriteReq, Size: 8, CmdDir: 1
system.cpu.icache.cpu_side::recvTimingReq: hasPC? 1, PC = 225217413242, hasContextId? 1, contextID = 0, Vaddr: 225217413248, Paddr: 168064
system.cpu.dcache.cpu_side::recvTimingReq: hasPC? 1, PC = 225217439682, hasContextId? 1, contextID = 0, MemCmd: WriteReq, Size: 8, CmdDir: 1
system.cpu.dcache.cpu_side::recvTimingReq: hasPC? 1, PC = 225217412919, hasContextId? 1, contextID = 0, MemCmd: WriteReq, Size: 8, CmdDir: 1
system.cpu.icache.cpu_side::recvTimingReq: hasPC? 1, PC = 225217412881, hasContextId? 1, contextID = 0, Vaddr: 225217412864, Paddr: 167680
system.cpu.dcache.cpu_side::recvTimingReq: hasPC? 1, PC = 225217412949, hasContextId? 1, contextID = 0, MemCmd: WriteReq, Size: 4, CmdDir: 1
system.cpu.dcache.cpu_side::recvTimingReq: hasPC? 1, PC = 225217413189, hasContextId? 1, contextID = 0, MemCmd: ReadReq, Size: 1, CmdDir: 1
system.cpu.dcache.cpu_side::recvTimingReq: hasPC? 1, PC = 225217413193, hasContextId? 1, contextID = 0, MemCmd: ReadReq, Size: 4, CmdDir: 1
system.cpu.dcache.cpu_side::recvTimingReq: hasPC? 1, PC = 225217413198, hasContextId? 1, contextID = 0, MemCmd: ReadReq, Size: 2, CmdDir: 1
system.cpu.dcache.cpu_side::recvTimingReq: hasPC? 1, PC = 225217413202, hasContextId? 1, contextID = 0, MemCmd: ReadReq, Size: 4, CmdDir: 1
system.cpu.dcache.cpu_side::recvTimingReq: hasPC? 1, PC = 225217412961, hasContextId? 1, contextID = 0, MemCmd: WriteReq, Size: 8, CmdDir: 1
system.cpu.icache.cpu_side::recvTimingReq: hasPC? 1, PC = 225217412761, hasContextId? 1, contextID = 0, Vaddr: 225217412736, Paddr: 167552
system.cpu.dcache.cpu_side::recvTimingReq: hasPC? 1, PC = 225217413218, hasContextId? 1, contextID = 0, MemCmd: ReadReq, Size: 8, CmdDir: 1
system.cpu.dcache.cpu_side::recvTimingReq: hasPC? 1, PC = 225217413259, hasContextId? 1, contextID = 0, MemCmd: ReadReq, Size: 4, CmdDir: 1
system.cpu.icache.cpu_side::recvTimingReq: hasPC? 1, PC = 225217412800, hasContextId? 1, contextID = 0, Vaddr: 225217412800, Paddr: 167616
system.cpu.dcache.cpu_side::recvTimingReq: hasPC? 1, PC = 225217413239, hasContextId? 1, contextID = 0, MemCmd: ReadReq, Size: 4, CmdDir: 1
system.cpu.dcache.cpu_side::recvTimingReq: hasPC? 1, PC = 225217412888, hasContextId? 1, contextID = 0, MemCmd: ReadReq, Size: 8, CmdDir: 1
system.cpu.dcache.cpu_side::recvTimingReq: hasPC? 1, PC = 225217412889, hasContextId? 1, contextID = 0, MemCmd: ReadReq, Size: 8, CmdDir: 1
system.cpu.dcache.cpu_side::recvTimingReq: hasPC? 1, PC = 225217412891, hasContextId? 1, contextID = 0, MemCmd: ReadReq, Size: 8, CmdDir: 1
system.cpu.dcache.cpu_side::recvTimingReq: hasPC? 1, PC = 225217412893, hasContextId? 1, contextID = 0, MemCmd: ReadReq, Size: 8, CmdDir: 1
system.cpu.icache.cpu_side::recvTimingReq: hasPC? 1, PC = 225217413184, hasContextId? 1, contextID = 0, Vaddr: 225217413184, Paddr: 168000
system.cpu.icache.cpu_side::recvTimingReq: hasPC? 1, PC = 225217413242, hasContextId? 1, contextID = 0, Vaddr: 225217413248, Paddr: 168064
system.cpu.dcache.cpu_side::recvTimingReq: hasPC? 1, PC = 225217413234, hasContextId? 1, contextID = 0, MemCmd: WriteReq, Size: 4, CmdDir: 1
system.cpu.icache.cpu_side::recvTimingReq: hasPC? 1, PC = 225217413184, hasContextId? 1, contextID = 0, Vaddr: 225217413184, Paddr: 168000
system.cpu.icache.cpu_side::recvTimingReq: hasPC? 1, PC = 225217413242, hasContextId? 1, contextID = 0, Vaddr: 225217413248, Paddr: 168064
system.cpu.dcache.cpu_side::recvTimingReq: hasPC? 1, PC = 225217413189, hasContextId? 1, contextID = 0, MemCmd: ReadReq, Size: 1, CmdDir: 1
system.cpu.dcache.cpu_side::recvTimingReq: hasPC? 1, PC = 225217413193, hasContextId? 1, contextID = 0, MemCmd: ReadReq, Size: 4, CmdDir: 1
system.cpu.dcache.cpu_side::recvTimingReq: hasPC? 1, PC = 225217413198, hasContextId? 1, contextID = 0, MemCmd: ReadReq, Size: 2, CmdDir: 1
system.cpu.dcache.cpu_side::recvTimingReq: hasPC? 1, PC = 225217413202, hasContextId? 1, contextID = 0, MemCmd: ReadReq, Size: 4, CmdDir: 1
system.cpu.dcache.cpu_side::recvTimingReq: hasPC? 1, PC = 225217413218, hasContextId? 1, contextID = 0, MemCmd: ReadReq, Size: 8, CmdDir: 1
system.cpu.icache.cpu_side::recvTimingReq: hasPC? 1, PC = 225217413184, hasContextId? 1, contextID = 0, Vaddr: 225217413184, Paddr: 168000
system.cpu.dcache.cpu_side::recvTimingReq: hasPC? 1, PC = 225217413259, hasContextId? 1, contextID = 0, MemCmd: ReadReq, Size: 4, CmdDir: 1
system.cpu.dcache.cpu_side::recvTimingReq: hasPC? 1, PC = 225217413218, hasContextId? 1, contextID = 0, MemCmd: ReadReq, Size: 8, CmdDir: 1
system.cpu.dcache.cpu_side::recvTimingReq: hasPC? 1, PC = 225217413239, hasContextId? 1, contextID = 0, MemCmd: ReadReq, Size: 4, CmdDir: 1
system.cpu.icache.cpu_side::recvTimingReq: hasPC? 1, PC = 225217413242, hasContextId? 1, contextID = 0, Vaddr: 225217413248, Paddr: 168064
system.cpu.dcache.cpu_side::recvTimingReq: hasPC? 1, PC = 225217413189, hasContextId? 1, contextID = 0, MemCmd: ReadReq, Size: 1, CmdDir: 1
system.cpu.dcache.cpu_side::recvTimingReq: hasPC? 1, PC = 225217413193, hasContextId? 1, contextID = 0, MemCmd: ReadReq, Size: 4, CmdDir: 1
system.cpu.dcache.cpu_side::recvTimingReq: hasPC? 1, PC = 225217413198, hasContextId? 1, contextID = 0, MemCmd: ReadReq, Size: 2, CmdDir: 1
system.cpu.dcache.cpu_side::recvTimingReq: hasPC? 1, PC = 225217413202, hasContextId? 1, contextID = 0, MemCmd: ReadReq, Size: 4, CmdDir: 1
system.cpu.dcache.cpu_side::recvTimingReq: hasPC? 1, PC = 225217413259, hasContextId? 1, contextID = 0, MemCmd: ReadReq, Size: 4, CmdDir: 1
system.cpu.icache.cpu_side::recvTimingReq: hasPC? 1, PC = 225217413184, hasContextId? 1, contextID = 0, Vaddr: 225217413184, Paddr: 168000
system.cpu.dcache.cpu_side::recvTimingReq: hasPC? 1, PC = 225217413218, hasContextId? 1, contextID = 0, MemCmd: ReadReq, Size: 8, CmdDir: 1
system.cpu.dcache.cpu_side::recvTimingReq: hasPC? 1, PC = 225217413239, hasContextId? 1, contextID = 0, MemCmd: ReadReq, Size: 4, CmdDir: 1
system.cpu.icache.cpu_side::recvTimingReq: hasPC? 1, PC = 225217413242, hasContextId? 1, contextID = 0, Vaddr: 225217413248, Paddr: 168064
system.cpu.dcache.cpu_side::recvTimingReq: hasPC? 1, PC = 225217413189, hasContextId? 1, contextID = 0, MemCmd: ReadReq, Size: 1, CmdDir: 1
system.cpu.dcache.cpu_side::recvTimingReq: hasPC? 1, PC = 225217413193, hasContextId? 1, contextID = 0, MemCmd: ReadReq, Size: 4, CmdDir: 1
system.cpu.dcache.cpu_side::recvTimingReq: hasPC? 1, PC = 225217413198, hasContextId? 1, contextID = 0, MemCmd: ReadReq, Size: 2, CmdDir: 1
system.cpu.dcache.cpu_side::recvTimingReq: hasPC? 1, PC = 225217413202, hasContextId? 1, contextID = 0, MemCmd: ReadReq, Size: 4, CmdDir: 1
system.cpu.dcache.cpu_side::recvTimingReq: hasPC? 1, PC = 225217413259, hasContextId? 1, contextID = 0, MemCmd: ReadReq, Size: 4, CmdDir: 1
system.cpu.icache.cpu_side::recvTimingReq: hasPC? 1, PC = 225217413184, hasContextId? 1, contextID = 0, Vaddr: 225217413184, Paddr: 168000
system.cpu.dcache.cpu_side::recvTimingReq: hasPC? 1, PC = 225217413239, hasContextId? 1, contextID = 0, MemCmd: ReadReq, Size: 4, CmdDir: 1
system.cpu.dcache.cpu_side::recvTimingReq: hasPC? 1, PC = 225217413218, hasContextId? 1, contextID = 0, MemCmd: ReadReq, Size: 8, CmdDir: 1
system.cpu.dcache.cpu_side::recvTimingReq: hasPC? 1, PC = 225217413189, hasContextId? 1, contextID = 0, MemCmd: ReadReq, Size: 1, CmdDir: 1
system.cpu.dcache.cpu_side::recvTimingReq: hasPC? 1, PC = 225217413193, hasContextId? 1, contextID = 0, MemCmd: ReadReq, Size: 4, CmdDir: 1
system.cpu.dcache.cpu_side::recvTimingReq: hasPC? 1, PC = 225217413198, hasContextId? 1, contextID = 0, MemCmd: ReadReq, Size: 2, CmdDir: 1
system.cpu.dcache.cpu_side::recvTimingReq: hasPC? 1, PC = 225217413202, hasContextId? 1, contextID = 0, MemCmd: ReadReq, Size: 4, CmdDir: 1
system.cpu.icache.cpu_side::recvTimingReq: hasPC? 1, PC = 225217413242, hasContextId? 1, contextID = 0, Vaddr: 225217413248, Paddr: 168064
system.cpu.dcache.cpu_side::recvTimingReq: hasPC? 1, PC = 225217413259, hasContextId? 1, contextID = 0, MemCmd: ReadReq, Size: 4, CmdDir: 1
system.cpu.icache.cpu_side::recvTimingReq: hasPC? 1, PC = 225217412881, hasContextId? 1, contextID = 0, Vaddr: 225217412864, Paddr: 167680
system.cpu.icache.cpu_side::recvTimingReq: hasPC? 1, PC = 225217412761, hasContextId? 1, contextID = 0, Vaddr: 225217412736, Paddr: 167552
system.cpu.icache.cpu_side::recvTimingReq: hasPC? 1, PC = 225217412800, hasContextId? 1, contextID = 0, Vaddr: 225217412800, Paddr: 167616
system.cpu.dcache.cpu_side::recvTimingReq: hasPC? 1, PC = 225217412888, hasContextId? 1, contextID = 0, MemCmd: ReadReq, Size: 8, CmdDir: 1
system.cpu.dcache.cpu_side::recvTimingReq: hasPC? 1, PC = 225217412889, hasContextId? 1, contextID = 0, MemCmd: ReadReq, Size: 8, CmdDir: 1
system.cpu.icache.cpu_side::recvTimingReq: hasPC? 1, PC = 225217412862, hasContextId? 1, contextID = 0, Vaddr: 225217412864, Paddr: 167680
system.cpu.dcache.cpu_side::recvTimingReq: hasPC? 1, PC = 225217412891, hasContextId? 1, contextID = 0, MemCmd: ReadReq, Size: 8, CmdDir: 1
system.cpu.dcache.cpu_side::recvTimingReq: hasPC? 1, PC = 225217412893, hasContextId? 1, contextID = 0, MemCmd: ReadReq, Size: 8, CmdDir: 1
system.cpu.dcache.cpu_side::recvTimingReq: hasPC? 1, PC = 225217412895, hasContextId? 1, contextID = 0, MemCmd: ReadReq, Size: 8, CmdDir: 1
system.cpu.icache.cpu_side::recvTimingReq: hasPC? 1, PC = 225217412720, hasContextId? 1, contextID = 0, Vaddr: 225217412672, Paddr: 167488
system.cpu.dcache.cpu_side::recvTimingReq: hasPC? 1, PC = 225217412897, hasContextId? 1, contextID = 0, MemCmd: ReadReq, Size: 8, CmdDir: 1
system.cpu.icache.cpu_side::recvTimingReq: hasPC? 1, PC = 225217412732, hasContextId? 1, contextID = 0, Vaddr: 225217412736, Paddr: 167552
system.cpu.dcache.cpu_side::recvTimingReq: hasPC? 1, PC = 225217412898, hasContextId? 1, contextID = 0, MemCmd: ReadReq, Size: 8, CmdDir: 1
system.cpu.icache.cpu_side::recvTimingReq: hasPC? 1, PC = 225217412800, hasContextId? 1, contextID = 0, Vaddr: 225217412800, Paddr: 167616
system.cpu.icache.cpu_side::recvTimingReq: hasPC? 1, PC = 225217413638, hasContextId? 1, contextID = 0, Vaddr: 225217413632, Paddr: 168448
system.cpu.icache.cpu_side::recvTimingReq: hasPC? 1, PC = 225217413593, hasContextId? 1, contextID = 0, Vaddr: 225217413568, Paddr: 168384
system.cpu.icache.cpu_side::recvTimingReq: hasPC? 1, PC = 225217413630, hasContextId? 1, contextID = 0, Vaddr: 225217413632, Paddr: 168448
system.cpu.icache.cpu_side::recvTimingReq: hasPC? 1, PC = 225217412288, hasContextId? 1, contextID = 0, Vaddr: 225217412288, Paddr: 167104
system.cpu.dcache.cpu_side::recvTimingReq: hasPC? 1, PC = 225217413595, hasContextId? 1, contextID = 0, MemCmd: ReadReq, Size: 8, CmdDir: 1
system.cpu.icache.cpu_side::recvTimingReq: hasPC? 1, PC = 225217412348, hasContextId? 1, contextID = 0, Vaddr: 225217412352, Paddr: 167168
system.cpu.icache.cpu_side::recvTimingReq: hasPC? 1, PC = 225217413271, hasContextId? 1, contextID = 0, Vaddr: 225217413248, Paddr: 168064
system.cpu.icache.cpu_side::recvTimingReq: hasPC? 1, PC = 225217413606, hasContextId? 1, contextID = 0, Vaddr: 225217413568, Paddr: 168384
system.cpu.icache.cpu_side::recvTimingReq: hasPC? 1, PC = 225217411649, hasContextId? 1, contextID = 0, Vaddr: 225217411648, Paddr: 166464
system.cpu.icache.cpu_side::recvTimingReq: hasPC? 1, PC = 225217412251, hasContextId? 1, contextID = 0, Vaddr: 225217412224, Paddr: 167040
system.cpu.icache.cpu_side::recvTimingReq: hasPC? 1, PC = 225217412288, hasContextId? 1, contextID = 0, Vaddr: 225217412288, Paddr: 167104
system.cpu.dcache.cpu_side::recvTimingReq: hasPC? 1, PC = 225217413612, hasContextId? 1, contextID = 0, MemCmd: ReadReq, Size: 8, CmdDir: 1
system.cpu.dcache.cpu_side::recvTimingReq: hasPC? 1, PC = 225217413613, hasContextId? 1, contextID = 0, MemCmd: ReadReq, Size: 8, CmdDir: 1
system.cpu.dcache.cpu_side::recvTimingReq: hasPC? 1, PC = 225217413614, hasContextId? 1, contextID = 0, MemCmd: ReadReq, Size: 8, CmdDir: 1
system.cpu.dcache.cpu_side::recvTimingReq: hasPC? 1, PC = 225217413616, hasContextId? 1, contextID = 0, MemCmd: ReadReq, Size: 8, CmdDir: 1
system.cpu.dcache.cpu_side::recvTimingReq: hasPC? 1, PC = 225217413618, hasContextId? 1, contextID = 0, MemCmd: ReadReq, Size: 8, CmdDir: 1
system.cpu.icache.cpu_side::recvTimingReq: hasPC? 1, PC = 225217411422, hasContextId? 1, contextID = 0, Vaddr: 225217411392, Paddr: 166208
system.cpu.dcache.cpu_side::recvTimingReq: hasPC? 1, PC = 225217411651, hasContextId? 1, contextID = 0, MemCmd: ReadReq, Size: 8, CmdDir: 1
system.cpu.icache.cpu_side::recvTimingReq: hasPC? 1, PC = 225217357288, hasContextId? 1, contextID = 0, Vaddr: 225217357248, Paddr: 112064
system.cpu.icache.cpu_side::recvTimingReq: hasPC? 1, PC = 225217412251, hasContextId? 1, contextID = 0, Vaddr: 225217412224, Paddr: 167040
system.cpu.icache.cpu_side::recvTimingReq: hasPC? 1, PC = 225217412288, hasContextId? 1, contextID = 0, Vaddr: 225217412288, Paddr: 167104
system.cpu.dcache.cpu_side::recvTimingReq: hasPC? 1, PC = 225217357292, hasContextId? 1, contextID = 0, MemCmd: ReadReq, Size: 4, CmdDir: 1
system.cpu.icache.cpu_side::recvTimingReq: hasPC? 1, PC = 225217412348, hasContextId? 1, contextID = 0, Vaddr: 225217412352, Paddr: 167168
system.cpu.dcache.cpu_side::recvTimingReq: hasPC? 1, PC = 225217357298, hasContextId? 1, contextID = 0, MemCmd: ReadReq, Size: 8, CmdDir: 1
system.cpu.dcache.cpu_side::recvTimingReq: hasPC? 1, PC = 225217357299, hasContextId? 1, contextID = 0, MemCmd: ReadReq, Size: 8, CmdDir: 1
system.cpu.icache.cpu_side::recvTimingReq: hasPC? 1, PC = 225217357304, hasContextId? 1, contextID = 0, Vaddr: 225217357248, Paddr: 112064
system.cpu.icache.cpu_side::recvTimingReq: hasPC? 1, PC = 225217357310, hasContextId? 1, contextID = 0, Vaddr: 225217357312, Paddr: 112128
system.cpu.dcache.cpu_side::recvTimingReq: hasPC? 1, PC = 225217357304, hasContextId? 1, contextID = 0, MemCmd: ReadReq, Size: 8, CmdDir: 1
system.cpu.icache.cpu_side::recvTimingReq: hasPC? 1, PC = 225217357375, hasContextId? 1, contextID = 0, Vaddr: 225217357376, Paddr: 112192
system.cpu.icache.cpu_side::recvTimingReq: hasPC? 1, PC = 225217357434, hasContextId? 1, contextID = 0, Vaddr: 225217357440, Paddr: 112256
system.cpu.icache.cpu_side::recvTimingReq: hasPC? 1, PC = 225217443808, hasContextId? 1, contextID = 0, Vaddr: 225217443776, Paddr: 198592
system.cpu.dcache.cpu_side::recvTimingReq: hasPC? 1, PC = 225217413242, hasContextId? 1, contextID = 0, MemCmd: WriteReq, Size: 8, CmdDir: 1
system.cpu.dcache.cpu_side::recvTimingReq: hasPC? 1, PC = 225217413255, hasContextId? 1, contextID = 0, MemCmd: WriteReq, Size: 8, CmdDir: 1
system.cpu.dcache.cpu_side::recvTimingReq: hasPC? 1, PC = 225217413234, hasContextId? 1, contextID = 0, MemCmd: WriteReq, Size: 4, CmdDir: 1
system.cpu.dcache.cpu_side::recvTimingReq: hasPC? 1, PC = 225217413242, hasContextId? 1, contextID = 0, MemCmd: WriteReq, Size: 8, CmdDir: 1
system.cpu.dcache.cpu_side::recvTimingReq: hasPC? 1, PC = 225217413255, hasContextId? 1, contextID = 0, MemCmd: WriteReq, Size: 8, CmdDir: 1
system.cpu.dcache.cpu_side::recvTimingReq: hasPC? 1, PC = 225217413234, hasContextId? 1, contextID = 0, MemCmd: WriteReq, Size: 4, CmdDir: 1
system.cpu.icache.cpu_side::recvTimingReq: hasPC? 1, PC = 225217443840, hasContextId? 1, contextID = 0, Vaddr: 225217443840, Paddr: 198656
system.cpu.dcache.cpu_side::recvTimingReq: hasPC? 1, PC = 225217413242, hasContextId? 1, contextID = 0, MemCmd: WriteReq, Size: 8, CmdDir: 1
system.cpu.dcache.cpu_side::recvTimingReq: hasPC? 1, PC = 225217413255, hasContextId? 1, contextID = 0, MemCmd: WriteReq, Size: 8, CmdDir: 1
system.cpu.dcache.cpu_side::recvTimingReq: hasPC? 1, PC = 225217413234, hasContextId? 1, contextID = 0, MemCmd: WriteReq, Size: 4, CmdDir: 1
system.cpu.dcache.cpu_side::recvTimingReq: hasPC? 1, PC = 225217413242, hasContextId? 1, contextID = 0, MemCmd: WriteReq, Size: 8, CmdDir: 1
system.cpu.dcache.cpu_side::recvTimingReq: hasPC? 1, PC = 225217413255, hasContextId? 1, contextID = 0, MemCmd: WriteReq, Size: 8, CmdDir: 1
system.cpu.icache.cpu_side::recvTimingReq: hasPC? 1, PC = 225217412251, hasContextId? 1, contextID = 0, Vaddr: 225217412224, Paddr: 167040
system.cpu.icache.cpu_side::recvTimingReq: hasPC? 1, PC = 225217412288, hasContextId? 1, contextID = 0, Vaddr: 225217412288, Paddr: 167104
Exiting @ tick 61427000 because target called exit()
