gem5 Simulator System.  http://gem5.org
gem5 is copyrighted software; use the --copyright option for details.

gem5 compiled Mar 24 2017 15:01:06
gem5 started Mar 24 2017 16:34:54
gem5 executing on shai.cse.psu.edu, pid 20322
command line: /home/mdl/mjl5868/GEM5/Mem2D/New_Version/2dmem_v0_1_addaddrbit/V0_1_AddAddrBit/gem5/build/X86/gem5.fast /home/mdl/mjl5868/GEM5/Mem2D/New_Version/2dmem_v0_1_addaddrbit/V0_1_AddAddrBit/gem5/configs/example/se.py --output=build_test_MMMDD_YYYY.appout --errout=build_test_MMMDD_YYYY.apperr -c '/home/mdl/mjl5868/GEM5/Mem2D/New_Version/Original/Vectorization test/test-bin' --caches --l2cache --cpu-type=detailed

Global frequency set at 1000000000000 ticks per second
**** REAL SIMULATION ****
info: Entering event queue @ 0.  Starting simulation...
info: Increasing stack size by one page.
Exiting @ tick 94388500 because target called exit()
