gem5 Simulator System.  http://gem5.org
gem5 is copyrighted software; use the --copyright option for details.

gem5 compiled Apr 23 2017 14:26:49
gem5 started Apr 23 2017 14:48:42
gem5 executing on shai.cse.psu.edu, pid 43271
command line: /home/mdl/mjl5868/GEM5/Mem2D/New_Version/2dmem_v0_1_addaddrbit/V0_1_AddAddrBit/gem5/build/X86/gem5.opt --redirect-stdout --stdout-file=build_test_Apr22_2017.gemout --redirect-stderr --stderr-file=build_test_Apr22_2017.gemerr --stats-file=build_test_Apr22_2017.stat /home/mdl/mjl5868/GEM5/Mem2D/New_Version/2dmem_v0_1_addaddrbit/V0_1_AddAddrBit/gem5/configs/example/se.py --output=build_test_Apr22_2017.appout --errout=build_test_Apr22_2017.apperr -c /home/mdl/mjl5868/GEM5/Mem2D/New_Version/2dmem_v0_1_addaddrbit/V0_1_AddAddrBit/Run_test_pbs/Vector_test/testscl-bin --caches --cpu-type=detailed --MJL_row_width=8 --MJL_PC2DirFile=test.txt --mem-size=8192MB

Global frequency set at 1000000000000 ticks per second
system.cpu.dcache.tags::MJL_rowWidth = 8
system.cpu.dcache::MJL_rowWidth = 8
system.cpu.dcache::MJL_PC2DirFilname = test.txt
MJL_Error: Could not open test input file!
After reading the file
system.cpu.dtb_walker_cache.tags::MJL_rowWidth = 8
system.cpu.dtb_walker_cache::MJL_rowWidth = 8
system.cpu.dtb_walker_cache::MJL_PC2DirFilname = PC2Dir.txt
system.cpu.icache.tags::MJL_rowWidth = 8
system.cpu.icache::MJL_rowWidth = 8
system.cpu.icache::MJL_PC2DirFilname = PC2Dir.txt
system.cpu.itb_walker_cache.tags::MJL_rowWidth = 8
system.cpu.itb_walker_cache::MJL_rowWidth = 8
system.cpu.itb_walker_cache::MJL_PC2DirFilname = PC2Dir.txt
**** REAL SIMULATION ****
info: Entering event queue @ 0.  Starting simulation...
system.cpu.dcache.cpu_side::recvTimingReq: hasPC? 1, PC = 4194757, addr = 4356640, hasData? 0, NoData, Size = 8, time = 81000, MemCmd: ReadReq, needsResponse? Y, addr = 4356640
system.mem_ctrls::access() Cmd: ReadSharedReq, DataDir: 2, CmdDir: 2, Size: 64, addr: 4350640, PC: 4194757, time: 81000
setDataFromBlock:: PC = 4194757,  addr = 4356640, sameCmdDataDir? 1, size = 8, data = 1
system.cpu.dcache.cpu_side::sendTimingResp: hasPC? 1, PC = 4194757, hasContextId? 1, contextID = 0, Size = 8, time = 81000, Addr = 4356640, Dir = 2, Cmd = 2, Data = 1
system.cpu.dcache.cpu_side::recvTimingReq: hasPC? 1, PC = 4194765, addr = 4356630, hasData? 1, Data = 0, Size = 8, time = 82000, MemCmd: WriteReq, needsResponse? Y, addr = 4356630
system.mem_ctrls::access() Cmd: ReadExReq, DataDir: 2, CmdDir: 2, Size: 64, addr: 4350630, PC: 4194765, time: 82000
writeDataToBlock:: PC = 4194765,  addr = 4356630, sameCmdDataDir? 1, size = 8, data = 0
system.cpu.dcache.cpu_side::sendTimingResp: hasPC? 1, PC = 4194765, hasContextId? 1, contextID = 0, Size = 8, time = 82000, Addr = 4356630, Dir = 2, Cmd = 5, noData
system.cpu.dcache.cpu_side::recvTimingReq: hasPC? 1, PC = 4194766, addr = 4356620, hasData? 1, Data = 7fffffffed98, Size = 8, time = 82500, MemCmd: WriteReq, needsResponse? Y, addr = 4356620
system.cpu.dcache.cpu_side::recvTimingReq: hasPC? 1, PC = 4546851, addr = 4356620, hasData? 0, NoData, Size = 8, time = 224500, MemCmd: ReadReq, needsResponse? Y, addr = 4356620
system.cpu.dcache.cpu_side::recvTimingReq: hasPC? 1, PC = 4546851, addr = 4356620, hasData? 0, NoData, Size = 8, time = 229500, MemCmd: ReadReq, needsResponse? Y, addr = 4356620
system.mem_ctrls::access() Cmd: ReadExReq, DataDir: 2, CmdDir: 2, Size: 64, addr: 4350620, PC: 4194766, time: 82500
writeDataToBlock:: PC = 4194766,  addr = 4356620, sameCmdDataDir? 1, size = 8, data = 7fffffffed98
setDataFromBlock:: PC = 4546851,  addr = 4356620, sameCmdDataDir? 1, size = 8, data = 7fffffffed98
setDataFromBlock:: PC = 4546851,  addr = 4356620, sameCmdDataDir? 1, size = 8, data = 7fffffffed98
system.cpu.dcache.cpu_side::sendTimingResp: hasPC? 1, PC = 4194766, hasContextId? 1, contextID = 0, Size = 8, time = 82500, Addr = 4356620, Dir = 2, Cmd = 5, noData
system.cpu.dcache.cpu_side::recvTimingReq: hasPC? 1, PC = 4194788, addr = 4356610, hasData? 1, Data = 4001e9, Size = 8, time = 83000, MemCmd: WriteReq, needsResponse? Y, addr = 4356610
system.cpu.dcache.cpu_side::sendTimingResp: hasPC? 1, PC = 4546851, hasContextId? 1, contextID = 0, Size = 8, time = 224500, Addr = 4356620, Dir = 2, Cmd = 2, Data = 7fffffffed98
system.cpu.dcache.cpu_side::sendTimingResp: hasPC? 1, PC = 4546851, hasContextId? 1, contextID = 0, Size = 8, time = 229500, Addr = 4356620, Dir = 2, Cmd = 2, Data = 7fffffffed98
system.cpu.dcache.cpu_side::recvTimingReq: hasPC? 1, PC = 4546880, addr = 4356670, hasData? 0, NoData, Size = 8, time = 286000, MemCmd: ReadReq, needsResponse? Y, addr = 4356670
system.mem_ctrls::access() Cmd: ReadExReq, DataDir: 2, CmdDir: 2, Size: 64, addr: 4350610, PC: 4194788, time: 83000
system.mem_ctrls::access() Cmd: ReadSharedReq, DataDir: 2, CmdDir: 2, Size: 64, addr: 4350670, PC: 4546880, time: 286000
writeDataToBlock:: PC = 4194788,  addr = 4356610, sameCmdDataDir? 1, size = 8, data = 4001e9
system.cpu.dcache.cpu_side::sendTimingResp: hasPC? 1, PC = 4194788, hasContextId? 1, contextID = 0, Size = 8, time = 83000, Addr = 4356610, Dir = 2, Cmd = 5, noData
system.cpu.dcache.cpu_side::recvTimingReq: hasPC? 1, PC = 4546768, addr = 4356600, hasData? 1, Data = 0, Size = 8, time = 158500, MemCmd: WriteReq, needsResponse? Y, addr = 4356600
setDataFromBlock:: PC = 4546880,  addr = 4356670, sameCmdDataDir? 1, size = 8, data = 0
system.cpu.dcache.cpu_side::sendTimingResp: hasPC? 1, PC = 4546880, hasContextId? 1, contextID = 0, Size = 8, time = 286000, Addr = 4356670, Dir = 2, Cmd = 2, Data = 0
system.cpu.dcache.cpu_side::recvTimingReq: hasPC? 1, PC = 4764994, addr = 4356700, hasData? 0, NoData, Size = 8, time = 365500, MemCmd: ReadReq, needsResponse? Y, addr = 4356700
system.mem_ctrls::access() Cmd: ReadExReq, DataDir: 2, CmdDir: 2, Size: 64, addr: 4350600, PC: 4546768, time: 158500
system.cpu.dcache.cpu_side::recvTimingReq: hasPC? 1, PC = 4765010, addr = 4345360, hasData? 0, NoData, Size = 8, time = 366500, MemCmd: ReadReq, needsResponse? Y, addr = 4345360
system.cpu.dcache.cpu_side::recvTimingReq: hasPC? 1, PC = 4765017, addr = 4345660, hasData? 0, NoData, Size = 4, time = 366500, MemCmd: ReadReq, needsResponse? Y, addr = 4345660
writeDataToBlock:: PC = 4546768,  addr = 4356600, sameCmdDataDir? 1, size = 8, data = 0
system.cpu.dcache.cpu_side::sendTimingResp: hasPC? 1, PC = 4546768, hasContextId? 1, contextID = 0, Size = 8, time = 158500, Addr = 4356600, Dir = 2, Cmd = 5, noData
system.cpu.dcache.cpu_side::recvTimingReq: hasPC? 1, PC = 4765026, addr = 4345350, hasData? 0, NoData, Size = 8, time = 397000, MemCmd: ReadReq, needsResponse? Y, addr = 4345350
system.mem_ctrls::access() Cmd: ReadSharedReq, DataDir: 2, CmdDir: 2, Size: 64, addr: 4350700, PC: 4764994, time: 365500
system.mem_ctrls::access() Cmd: ReadSharedReq, DataDir: 2, CmdDir: 2, Size: 64, addr: 4340360, PC: 4765010, time: 366500
system.mem_ctrls::access() Cmd: ReadSharedReq, DataDir: 2, CmdDir: 2, Size: 64, addr: 4340660, PC: 4765017, time: 366500
setDataFromBlock:: PC = 4764994,  addr = 4356700, sameCmdDataDir? 1, size = 8, data = 21
system.cpu.dcache.cpu_side::recvTimingReq: hasPC? 1, PC = 4546775, addr = 4356570, hasData? 1, Data = 0, Size = 8, time = 159000, MemCmd: WriteReq, needsResponse? Y, addr = 4356570
system.cpu.dcache.cpu_side::sendTimingResp: hasPC? 1, PC = 4764994, hasContextId? 1, contextID = 0, Size = 8, time = 365500, Addr = 4356700, Dir = 2, Cmd = 2, Data = 21
setDataFromBlock:: PC = 4765010,  addr = 4345360, sameCmdDataDir? 1, size = 8, data = 0
system.cpu.dcache.cpu_side::sendTimingResp: hasPC? 1, PC = 4765010, hasContextId? 1, contextID = 0, Size = 8, time = 366500, Addr = 4345360, Dir = 2, Cmd = 2, Data = 0
system.cpu.dcache.cpu_side::recvTimingReq: hasPC? 1, PC = 4765033, addr = 4345570, hasData? 0, NoData, Size = 8, time = 439000, MemCmd: ReadReq, needsResponse? Y, addr = 4345570
setDataFromBlock:: PC = 4765017,  addr = 4345660, sameCmdDataDir? 1, size = 4, data = 0
system.cpu.dcache.cpu_side::sendTimingResp: hasPC? 1, PC = 4765017, hasContextId? 1, contextID = 0, Size = 4, time = 366500, Addr = 4345660, Dir = 2, Cmd = 2, Data = 0
system.cpu.dcache.cpu_side::recvTimingReq: hasPC? 1, PC = 4765042, addr = 4343260, hasData? 0, NoData, Size = 8, time = 449000, MemCmd: ReadReq, needsResponse? Y, addr = 4343260
system.mem_ctrls::access() Cmd: ReadSharedReq, DataDir: 2, CmdDir: 2, Size: 64, addr: 4340350, PC: 4765026, time: 397000
system.mem_ctrls::access() Cmd: ReadExReq, DataDir: 2, CmdDir: 2, Size: 64, addr: 4350570, PC: 4546775, time: 159000
system.mem_ctrls::access() Cmd: ReadSharedReq, DataDir: 2, CmdDir: 2, Size: 64, addr: 4340570, PC: 4765033, time: 439000
setDataFromBlock:: PC = 4765026,  addr = 4345350, sameCmdDataDir? 1, size = 8, data = 0
system.cpu.dcache.cpu_side::sendTimingResp: hasPC? 1, PC = 4765026, hasContextId? 1, contextID = 0, Size = 8, time = 397000, Addr = 4345350, Dir = 2, Cmd = 2, Data = 0
system.cpu.dcache.cpu_side::recvTimingReq: hasPC? 1, PC = 4765049, addr = 4345650, hasData? 0, NoData, Size = 8, time = 489000, MemCmd: ReadReq, needsResponse? Y, addr = 4345650
system.mem_ctrls::access() Cmd: ReadSharedReq, DataDir: 2, CmdDir: 2, Size: 64, addr: 4340260, PC: 4765042, time: 449000
writeDataToBlock:: PC = 4546775,  addr = 4356570, sameCmdDataDir? 1, size = 8, data = 0
system.cpu.dcache.cpu_side::sendTimingResp: hasPC? 1, PC = 4546775, hasContextId? 1, contextID = 0, Size = 8, time = 159000, Addr = 4356570, Dir = 2, Cmd = 5, noData
system.cpu.dcache.cpu_side::recvTimingReq: hasPC? 1, PC = 4765058, addr = 4040510, hasData? 0, NoData, Size = 4, time = 510000, MemCmd: ReadReq, needsResponse? Y, addr = 4040510
system.mem_ctrls::access() Cmd: ReadSharedReq, DataDir: 2, CmdDir: 2, Size: 64, addr: 4340650, PC: 4765049, time: 489000
setDataFromBlock:: PC = 4765033,  addr = 4345570, sameCmdDataDir? 1, size = 8, data = 0
system.cpu.dcache.cpu_side::recvTimingReq: hasPC? 1, PC = 4546777, addr = 4356560, hasData? 1, Data = 0, Size = 8, time = 159500, MemCmd: WriteReq, needsResponse? Y, addr = 4356560
system.cpu.dcache.cpu_side::sendTimingResp: hasPC? 1, PC = 4765033, hasContextId? 1, contextID = 0, Size = 8, time = 439000, Addr = 4345570, Dir = 2, Cmd = 2, Data = 0
setDataFromBlock:: PC = 4765042,  addr = 4343260, sameCmdDataDir? 1, size = 8, data = 0
system.cpu.dcache.cpu_side::sendTimingResp: hasPC? 1, PC = 4765042, hasContextId? 1, contextID = 0, Size = 8, time = 449000, Addr = 4343260, Dir = 2, Cmd = 2, Data = 0
system.cpu.dcache.cpu_side::recvTimingReq: hasPC? 1, PC = 4765065, addr = 4345760, hasData? 0, NoData, Size = 4, time = 529000, MemCmd: ReadReq, needsResponse? Y, addr = 4345760
setDataFromBlock:: PC = 4765049,  addr = 4345650, sameCmdDataDir? 1, size = 8, data = 0
system.cpu.dcache.cpu_side::sendTimingResp: hasPC? 1, PC = 4765049, hasContextId? 1, contextID = 0, Size = 8, time = 489000, Addr = 4345650, Dir = 2, Cmd = 2, Data = 0
system.cpu.dcache.cpu_side::recvTimingReq: hasPC? 1, PC = 4765082, addr = 3103060, hasData? 0, NoData, Size = 8, time = 545000, MemCmd: ReadReq, needsResponse? Y, addr = 3103060
system.mem_ctrls::access() Cmd: ReadSharedReq, DataDir: 2, CmdDir: 2, Size: 64, addr: 4040510, PC: 4765058, time: 510000
system.mem_ctrls::access() Cmd: ReadExReq, DataDir: 2, CmdDir: 2, Size: 64, addr: 4350560, PC: 4546777, time: 159500
system.mem_ctrls::access() Cmd: ReadSharedReq, DataDir: 2, CmdDir: 2, Size: 64, addr: 4340760, PC: 4765065, time: 529000
setDataFromBlock:: PC = 4765058,  addr = 4040510, sameCmdDataDir? 1, size = 4, data = 1
system.cpu.dcache.cpu_side::sendTimingResp: hasPC? 1, PC = 4765058, hasContextId? 1, contextID = 0, Size = 4, time = 510000, Addr = 4040510, Dir = 2, Cmd = 2, Data = 1
system.cpu.dcache.cpu_side::recvTimingReq: hasPC? 1, PC = 4765096, addr = 4356710, hasData? 0, NoData, Size = 8, time = 580000, MemCmd: ReadReq, needsResponse? Y, addr = 4356710
system.mem_ctrls::access() Cmd: ReadSharedReq, DataDir: 2, CmdDir: 2, Size: 64, addr: 3100060, PC: 4765082, time: 545000
writeDataToBlock:: PC = 4546777,  addr = 4356560, sameCmdDataDir? 1, size = 8, data = 0
system.cpu.dcache.cpu_side::sendTimingResp: hasPC? 1, PC = 4546777, hasContextId? 1, contextID = 0, Size = 8, time = 159500, Addr = 4356560, Dir = 2, Cmd = 5, noData
system.cpu.dcache.cpu_side::recvTimingReq: hasPC? 1, PC = 4765108, addr = 4356720, hasData? 0, NoData, Size = 8, time = 593000, MemCmd: ReadReq, needsResponse? Y, addr = 4356720
setDataFromBlock:: PC = 4765065,  addr = 4345760, sameCmdDataDir? 1, size = 4, data = 0
system.cpu.dcache.cpu_side::recvTimingReq: hasPC? 1, PC = 4546779, addr = 4356550, hasData? 1, Data = 0, Size = 8, time = 160000, MemCmd: WriteReq, needsResponse? Y, addr = 4356550
system.cpu.dcache.cpu_side::sendTimingResp: hasPC? 1, PC = 4765065, hasContextId? 1, contextID = 0, Size = 4, time = 529000, Addr = 4345760, Dir = 2, Cmd = 2, Data = 0
setDataFromBlock:: PC = 4765082,  addr = 3103060, sameCmdDataDir? 1, size = 8, data = 48b628
system.mem_ctrls::access() Cmd: ReadSharedReq, DataDir: 2, CmdDir: 2, Size: 64, addr: 4350710, PC: 4765096, time: 580000
system.cpu.dcache.cpu_side::sendTimingResp: hasPC? 1, PC = 4765082, hasContextId? 1, contextID = 0, Size = 8, time = 545000, Addr = 3103060, Dir = 2, Cmd = 2, Data = 48b628
system.cpu.dcache.cpu_side::recvTimingReq: hasPC? 1, PC = 4765224, addr = 4356710, hasData? 0, NoData, Size = 8, time = 624500, MemCmd: ReadReq, needsResponse? Y, addr = 4356710
system.cpu.dcache.cpu_side::recvTimingReq: hasPC? 1, PC = 4765232, addr = 4356720, hasData? 0, NoData, Size = 8, time = 625500, MemCmd: ReadReq, needsResponse? Y, addr = 4356720
setDataFromBlock:: PC = 4765096,  addr = 4356710, sameCmdDataDir? 1, size = 8, data = ffffffffff600000
setDataFromBlock:: PC = 4765224,  addr = 4356710, sameCmdDataDir? 1, size = 8, data = ffffffffff600000
system.cpu.dcache.cpu_side::sendTimingResp: hasPC? 1, PC = 4765096, hasContextId? 1, contextID = 0, Size = 8, time = 580000, Addr = 4356710, Dir = 2, Cmd = 2, Data = ffffffffff600000
system.cpu.dcache.cpu_side::recvTimingReq: hasPC? 1, PC = 4546939, addr = 4355602, hasData? 0, NoData, Size = 1, time = 646000, MemCmd: ReadReq, needsResponse? Y, addr = 4355602
setDataFromBlock:: PC = 4546939,  addr = 4355602, sameCmdDataDir? 1, size = 1, data = 0
system.cpu.dcache.cpu_side::sendTimingResp: hasPC? 1, PC = 4765224, hasContextId? 1, contextID = 0, Size = 8, time = 624500, Addr = 4356710, Dir = 2, Cmd = 2, Data = ffffffffff600000
system.cpu.dcache.cpu_side::sendTimingResp: hasPC? 1, PC = 4546939, hasContextId? 1, contextID = 0, Size = 1, time = 646000, Addr = 4355602, Dir = 2, Cmd = 2, Data = 0
system.mem_ctrls::access() Cmd: ReadSharedReq, DataDir: 2, CmdDir: 2, Size: 64, addr: 4350720, PC: 4765108, time: 593000
system.mem_ctrls::access() Cmd: ReadExReq, DataDir: 2, CmdDir: 2, Size: 64, addr: 4350550, PC: 4546779, time: 160000
setDataFromBlock:: PC = 4765108,  addr = 4356720, sameCmdDataDir? 1, size = 8, data = 10
setDataFromBlock:: PC = 4765232,  addr = 4356720, sameCmdDataDir? 1, size = 8, data = 10
system.cpu.dcache.cpu_side::sendTimingResp: hasPC? 1, PC = 4765108, hasContextId? 1, contextID = 0, Size = 8, time = 593000, Addr = 4356720, Dir = 2, Cmd = 2, Data = 10
system.cpu.dcache.cpu_side::sendTimingResp: hasPC? 1, PC = 4765232, hasContextId? 1, contextID = 0, Size = 8, time = 625500, Addr = 4356720, Dir = 2, Cmd = 2, Data = 10
writeDataToBlock:: PC = 4546779,  addr = 4356550, sameCmdDataDir? 1, size = 8, data = 0
system.cpu.dcache.cpu_side::sendTimingResp: hasPC? 1, PC = 4546779, hasContextId? 1, contextID = 0, Size = 8, time = 160000, Addr = 4356550, Dir = 2, Cmd = 5, noData
system.cpu.dcache.cpu_side::recvTimingReq: hasPC? 1, PC = 4546784, addr = 4356540, hasData? 1, Data = 0, Size = 8, time = 160500, MemCmd: WriteReq, needsResponse? Y, addr = 4356540
system.cpu.dcache.cpu_side::recvTimingReq: hasPC? 1, PC = 4765082, addr = 3102650, hasData? 0, NoData, Size = 8, time = 698000, MemCmd: ReadReq, needsResponse? Y, addr = 3102650
system.cpu.dcache.cpu_side::recvTimingReq: hasPC? 1, PC = 4765096, addr = 4356730, hasData? 0, NoData, Size = 8, time = 698000, MemCmd: ReadReq, needsResponse? Y, addr = 4356730
system.cpu.dcache.cpu_side::recvTimingReq: hasPC? 1, PC = 4765108, addr = 4356740, hasData? 0, NoData, Size = 8, time = 699000, MemCmd: ReadReq, needsResponse? Y, addr = 4356740
system.mem_ctrls::access() Cmd: ReadExReq, DataDir: 2, CmdDir: 2, Size: 64, addr: 4350540, PC: 4546784, time: 160500
system.mem_ctrls::access() Cmd: ReadSharedReq, DataDir: 2, CmdDir: 2, Size: 64, addr: 3100650, PC: 4765082, time: 698000
system.mem_ctrls::access() Cmd: ReadSharedReq, DataDir: 2, CmdDir: 2, Size: 64, addr: 4350730, PC: 4765096, time: 698000
writeDataToBlock:: PC = 4546784,  addr = 4356540, sameCmdDataDir? 1, size = 8, data = 0
system.cpu.dcache.cpu_side::sendTimingResp: hasPC? 1, PC = 4546784, hasContextId? 1, contextID = 0, Size = 8, time = 160500, Addr = 4356540, Dir = 2, Cmd = 5, noData
system.cpu.dcache.cpu_side::recvTimingReq: hasPC? 1, PC = 4546788, addr = 4356530, hasData? 1, Data = 0, Size = 8, time = 161000, MemCmd: WriteReq, needsResponse? Y, addr = 4356530
system.mem_ctrls::access() Cmd: ReadSharedReq, DataDir: 2, CmdDir: 2, Size: 64, addr: 4350740, PC: 4765108, time: 699000
setDataFromBlock:: PC = 4765082,  addr = 3102650, sameCmdDataDir? 1, size = 8, data = 48b688
system.cpu.dcache.cpu_side::sendTimingResp: hasPC? 1, PC = 4765082, hasContextId? 1, contextID = 0, Size = 8, time = 698000, Addr = 3102650, Dir = 2, Cmd = 2, Data = 48b688
setDataFromBlock:: PC = 4765096,  addr = 4356730, sameCmdDataDir? 1, size = 8, data = 78bfbff
system.mem_ctrls::access() Cmd: ReadExReq, DataDir: 2, CmdDir: 2, Size: 64, addr: 4350530, PC: 4546788, time: 161000
system.cpu.dcache.cpu_side::sendTimingResp: hasPC? 1, PC = 4765096, hasContextId? 1, contextID = 0, Size = 8, time = 698000, Addr = 4356730, Dir = 2, Cmd = 2, Data = 78bfbff
setDataFromBlock:: PC = 4765108,  addr = 4356740, sameCmdDataDir? 1, size = 8, data = 6
system.cpu.dcache.cpu_side::sendTimingResp: hasPC? 1, PC = 4765108, hasContextId? 1, contextID = 0, Size = 8, time = 699000, Addr = 4356740, Dir = 2, Cmd = 2, Data = 6
writeDataToBlock:: PC = 4546788,  addr = 4356530, sameCmdDataDir? 1, size = 8, data = 0
system.cpu.dcache.cpu_side::sendTimingResp: hasPC? 1, PC = 4546788, hasContextId? 1, contextID = 0, Size = 8, time = 161000, Addr = 4356530, Dir = 2, Cmd = 5, noData
system.cpu.dcache.cpu_side::recvTimingReq: hasPC? 1, PC = 4546802, addr = 4355370, hasData? 1, Data = 4003b2, Size = 8, time = 162000, MemCmd: WriteReq, needsResponse? Y, addr = 4355370
system.cpu.dcache.cpu_side::recvTimingReq: hasPC? 1, PC = 4765320, addr = 4356730, hasData? 0, NoData, Size = 8, time = 832500, MemCmd: ReadReq, needsResponse? Y, addr = 4356730
setDataFromBlock:: PC = 4765320,  addr = 4356730, sameCmdDataDir? 1, size = 8, data = 78bfbff
system.cpu.dcache.cpu_side::sendTimingResp: hasPC? 1, PC = 4765320, hasContextId? 1, contextID = 0, Size = 8, time = 832500, Addr = 4356730, Dir = 2, Cmd = 2, Data = 78bfbff
system.cpu.dcache.cpu_side::recvTimingReq: hasPC? 1, PC = 4765328, addr = 4356740, hasData? 0, NoData, Size = 8, time = 833500, MemCmd: ReadReq, needsResponse? Y, addr = 4356740
setDataFromBlock:: PC = 4765328,  addr = 4356740, sameCmdDataDir? 1, size = 8, data = 6
system.cpu.dcache.cpu_side::recvTimingReq: hasPC? 1, PC = 4765352, addr = 4356750, hasData? 0, NoData, Size = 4, time = 833500, MemCmd: ReadReq, needsResponse? Y, addr = 4356750
system.cpu.dcache.cpu_side::recvTimingReq: hasPC? 1, PC = 4765362, addr = 4356760, hasData? 0, NoData, Size = 8, time = 834000, MemCmd: ReadReq, needsResponse? Y, addr = 4356760
system.cpu.dcache.cpu_side::sendTimingResp: hasPC? 1, PC = 4765328, hasContextId? 1, contextID = 0, Size = 8, time = 833500, Addr = 4356740, Dir = 2, Cmd = 2, Data = 6
system.cpu.dcache.cpu_side::recvTimingReq: hasPC? 1, PC = 4765082, addr = 3102530, hasData? 0, NoData, Size = 8, time = 841500, MemCmd: ReadReq, needsResponse? Y, addr = 3102530
system.mem_ctrls::access() Cmd: ReadExReq, DataDir: 2, CmdDir: 2, Size: 64, addr: 4350370, PC: 4546802, time: 162000
system.mem_ctrls::access() Cmd: ReadSharedReq, DataDir: 2, CmdDir: 2, Size: 64, addr: 4350750, PC: 4765352, time: 833500
writeDataToBlock:: PC = 4546802,  addr = 4355370, sameCmdDataDir? 1, size = 8, data = 4003b2
system.cpu.dcache.cpu_side::sendTimingResp: hasPC? 1, PC = 4546802, hasContextId? 1, contextID = 0, Size = 8, time = 162000, Addr = 4355370, Dir = 2, Cmd = 5, noData
system.cpu.dcache.cpu_side::recvTimingReq: hasPC? 1, PC = 4765096, addr = 4356750, hasData? 0, NoData, Size = 8, time = 876000, MemCmd: ReadReq, needsResponse? Y, addr = 4356750
system.cpu.dcache.cpu_side::recvTimingReq: hasPC? 1, PC = 4765108, addr = 4356760, hasData? 0, NoData, Size = 8, time = 876000, MemCmd: ReadReq, needsResponse? Y, addr = 4356760
system.cpu.dcache.cpu_side::recvTimingReq: hasPC? 1, PC = 4546807, addr = 4355354, hasData? 1, Data = 1, Size = 4, time = 162000, MemCmd: WriteReq, needsResponse? Y, addr = 4355354
setDataFromBlock:: PC = 4765352,  addr = 4356750, sameCmdDataDir? 1, size = 4, data = 1000
setDataFromBlock:: PC = 4765096,  addr = 4356750, sameCmdDataDir? 1, size = 8, data = 1000
system.cpu.dcache.cpu_side::sendTimingResp: hasPC? 1, PC = 4765352, hasContextId? 1, contextID = 0, Size = 4, time = 833500, Addr = 4356750, Dir = 2, Cmd = 2, Data = 1000
system.cpu.dcache.cpu_side::sendTimingResp: hasPC? 1, PC = 4765096, hasContextId? 1, contextID = 0, Size = 8, time = 876000, Addr = 4356750, Dir = 2, Cmd = 2, Data = 1000
system.mem_ctrls::access() Cmd: ReadSharedReq, DataDir: 2, CmdDir: 2, Size: 64, addr: 4350760, PC: 4765362, time: 834000
system.mem_ctrls::access() Cmd: ReadSharedReq, DataDir: 2, CmdDir: 2, Size: 64, addr: 3100530, PC: 4765082, time: 841500
system.mem_ctrls::access() Cmd: ReadExReq, DataDir: 2, CmdDir: 2, Size: 64, addr: 4350350, PC: 4546807, time: 162000
setDataFromBlock:: PC = 4765362,  addr = 4356760, sameCmdDataDir? 1, size = 8, data = 11
setDataFromBlock:: PC = 4765108,  addr = 4356760, sameCmdDataDir? 1, size = 8, data = 11
system.cpu.dcache.cpu_side::sendTimingResp: hasPC? 1, PC = 4765362, hasContextId? 1, contextID = 0, Size = 8, time = 834000, Addr = 4356760, Dir = 2, Cmd = 2, Data = 11
system.cpu.dcache.cpu_side::sendTimingResp: hasPC? 1, PC = 4765108, hasContextId? 1, contextID = 0, Size = 8, time = 876000, Addr = 4356760, Dir = 2, Cmd = 2, Data = 11
setDataFromBlock:: PC = 4765082,  addr = 3102530, sameCmdDataDir? 1, size = 8, data = 48b5a8
system.cpu.dcache.cpu_side::recvTimingReq: hasPC? 1, PC = 4765082, addr = 3102660, hasData? 0, NoData, Size = 8, time = 953000, MemCmd: ReadReq, needsResponse? Y, addr = 3102660
system.cpu.dcache.cpu_side::recvTimingReq: hasPC? 1, PC = 4765096, addr = 4356770, hasData? 0, NoData, Size = 8, time = 953000, MemCmd: ReadReq, needsResponse? Y, addr = 4356770
system.cpu.dcache.cpu_side::sendTimingResp: hasPC? 1, PC = 4765082, hasContextId? 1, contextID = 0, Size = 8, time = 841500, Addr = 3102530, Dir = 2, Cmd = 2, Data = 48b5a8
system.cpu.dcache.cpu_side::recvTimingReq: hasPC? 1, PC = 4765108, addr = 4357000, hasData? 0, NoData, Size = 8, time = 954000, MemCmd: ReadReq, needsResponse? Y, addr = 4357000
writeDataToBlock:: PC = 4546807,  addr = 4355354, sameCmdDataDir? 1, size = 4, data = 1
system.cpu.dcache.cpu_side::sendTimingResp: hasPC? 1, PC = 4546807, hasContextId? 1, contextID = 0, Size = 4, time = 162000, Addr = 4355354, Dir = 2, Cmd = 5, noData
system.cpu.dcache.cpu_side::recvTimingReq: hasPC? 1, PC = 4546811, addr = 4355360, hasData? 1, Data = 7fffffffeda8, Size = 8, time = 162000, MemCmd: WriteReq, needsResponse? Y, addr = 4355360
system.mem_ctrls::access() Cmd: ReadSharedReq, DataDir: 2, CmdDir: 2, Size: 64, addr: 3100660, PC: 4765082, time: 953000
system.mem_ctrls::access() Cmd: ReadSharedReq, DataDir: 2, CmdDir: 2, Size: 64, addr: 4350770, PC: 4765096, time: 953000
system.mem_ctrls::access() Cmd: ReadSharedReq, DataDir: 2, CmdDir: 2, Size: 64, addr: 4350000, PC: 4765108, time: 954000
system.mem_ctrls::access() Cmd: ReadExReq, DataDir: 2, CmdDir: 2, Size: 64, addr: 4350360, PC: 4546811, time: 162000
setDataFromBlock:: PC = 4765082,  addr = 3102660, sameCmdDataDir? 1, size = 8, data = 48b668
system.cpu.dcache.cpu_side::sendTimingResp: hasPC? 1, PC = 4765082, hasContextId? 1, contextID = 0, Size = 8, time = 953000, Addr = 3102660, Dir = 2, Cmd = 2, Data = 48b668
system.cpu.dcache.cpu_side::recvTimingReq: hasPC? 1, PC = 4765096, addr = 4356750, hasData? 0, NoData, Size = 8, time = 1015000, MemCmd: ReadReq, needsResponse? Y, addr = 4356750
setDataFromBlock:: PC = 4765096,  addr = 4356750, sameCmdDataDir? 1, size = 8, data = 1000
system.cpu.dcache.cpu_side::recvTimingReq: hasPC? 1, PC = 4765108, addr = 4356760, hasData? 0, NoData, Size = 8, time = 1015000, MemCmd: ReadReq, needsResponse? Y, addr = 4356760
setDataFromBlock:: PC = 4765108,  addr = 4356760, sameCmdDataDir? 1, size = 8, data = 11
system.cpu.dcache.cpu_side::sendTimingResp: hasPC? 1, PC = 4765096, hasContextId? 1, contextID = 0, Size = 8, time = 1015000, Addr = 4356750, Dir = 2, Cmd = 2, Data = 1000
system.cpu.dcache.cpu_side::sendTimingResp: hasPC? 1, PC = 4765108, hasContextId? 1, contextID = 0, Size = 8, time = 1015000, Addr = 4356760, Dir = 2, Cmd = 2, Data = 11
setDataFromBlock:: PC = 4765096,  addr = 4356770, sameCmdDataDir? 1, size = 8, data = 64
system.cpu.dcache.cpu_side::sendTimingResp: hasPC? 1, PC = 4765096, hasContextId? 1, contextID = 0, Size = 8, time = 953000, Addr = 4356770, Dir = 2, Cmd = 2, Data = 64
system.cpu.dcache.cpu_side::recvTimingReq: hasPC? 1, PC = 4765082, addr = 3102660, hasData? 0, NoData, Size = 8, time = 1028500, MemCmd: ReadReq, needsResponse? Y, addr = 3102660
setDataFromBlock:: PC = 4765082,  addr = 3102660, sameCmdDataDir? 1, size = 8, data = 48b668
system.cpu.dcache.cpu_side::recvTimingReq: hasPC? 1, PC = 4765096, addr = 4356770, hasData? 0, NoData, Size = 8, time = 1028500, MemCmd: ReadReq, needsResponse? Y, addr = 4356770
setDataFromBlock:: PC = 4765096,  addr = 4356770, sameCmdDataDir? 1, size = 8, data = 64
system.cpu.dcache.cpu_side::sendTimingResp: hasPC? 1, PC = 4765082, hasContextId? 1, contextID = 0, Size = 8, time = 1028500, Addr = 3102660, Dir = 2, Cmd = 2, Data = 48b668
system.cpu.dcache.cpu_side::recvTimingReq: hasPC? 1, PC = 4765108, addr = 4357000, hasData? 0, NoData, Size = 8, time = 1029500, MemCmd: ReadReq, needsResponse? Y, addr = 4357000
setDataFromBlock:: PC = 4765108,  addr = 4357000, sameCmdDataDir? 1, size = 8, data = 3
setDataFromBlock:: PC = 4765108,  addr = 4357000, sameCmdDataDir? 1, size = 8, data = 3
system.cpu.dcache.cpu_side::sendTimingResp: hasPC? 1, PC = 4765096, hasContextId? 1, contextID = 0, Size = 8, time = 1028500, Addr = 4356770, Dir = 2, Cmd = 2, Data = 64
system.cpu.dcache.cpu_side::sendTimingResp: hasPC? 1, PC = 4765108, hasContextId? 1, contextID = 0, Size = 8, time = 954000, Addr = 4357000, Dir = 2, Cmd = 2, Data = 3
system.cpu.dcache.cpu_side::sendTimingResp: hasPC? 1, PC = 4765108, hasContextId? 1, contextID = 0, Size = 8, time = 1029500, Addr = 4357000, Dir = 2, Cmd = 2, Data = 3
system.cpu.dcache.cpu_side::recvTimingReq: hasPC? 1, PC = 4765288, addr = 4356770, hasData? 0, NoData, Size = 4, time = 1037000, MemCmd: ReadReq, needsResponse? Y, addr = 4356770
setDataFromBlock:: PC = 4765288,  addr = 4356770, sameCmdDataDir? 1, size = 4, data = 64
system.cpu.dcache.cpu_side::sendTimingResp: hasPC? 1, PC = 4765288, hasContextId? 1, contextID = 0, Size = 4, time = 1037000, Addr = 4356770, Dir = 2, Cmd = 2, Data = 64
system.cpu.dcache.cpu_side::recvTimingReq: hasPC? 1, PC = 4765296, addr = 4357000, hasData? 0, NoData, Size = 8, time = 1038000, MemCmd: ReadReq, needsResponse? Y, addr = 4357000
setDataFromBlock:: PC = 4765296,  addr = 4357000, sameCmdDataDir? 1, size = 8, data = 3
system.cpu.dcache.cpu_side::recvTimingReq: hasPC? 1, PC = 4765320, addr = 4357010, hasData? 0, NoData, Size = 8, time = 1038000, MemCmd: ReadReq, needsResponse? Y, addr = 4357010
system.cpu.dcache.cpu_side::sendTimingResp: hasPC? 1, PC = 4765296, hasContextId? 1, contextID = 0, Size = 8, time = 1038000, Addr = 4357000, Dir = 2, Cmd = 2, Data = 3
system.cpu.dcache.cpu_side::recvTimingReq: hasPC? 1, PC = 4765328, addr = 4357020, hasData? 0, NoData, Size = 8, time = 1039000, MemCmd: ReadReq, needsResponse? Y, addr = 4357020
system.cpu.dcache.cpu_side::recvTimingReq: hasPC? 1, PC = 4765352, addr = 4357030, hasData? 0, NoData, Size = 4, time = 1039000, MemCmd: ReadReq, needsResponse? Y, addr = 4357030
writeDataToBlock:: PC = 4546811,  addr = 4355360, sameCmdDataDir? 1, size = 8, data = 7fffffffeda8
system.cpu.dcache.cpu_side::sendTimingResp: hasPC? 1, PC = 4546811, hasContextId? 1, contextID = 0, Size = 8, time = 162000, Addr = 4355360, Dir = 2, Cmd = 5, noData
system.cpu.dcache.cpu_side::recvTimingReq: hasPC? 1, PC = 4546830, addr = 4052150, hasData? 1, Data = 0, Size = 4, time = 230000, MemCmd: WriteReq, needsResponse? Y, addr = 4052150
system.mem_ctrls::access() Cmd: ReadSharedReq, DataDir: 2, CmdDir: 2, Size: 64, addr: 4350010, PC: 4765320, time: 1038000
system.mem_ctrls::access() Cmd: ReadSharedReq, DataDir: 2, CmdDir: 2, Size: 64, addr: 4350020, PC: 4765328, time: 1039000
system.mem_ctrls::access() Cmd: ReadSharedReq, DataDir: 2, CmdDir: 2, Size: 64, addr: 4350030, PC: 4765352, time: 1039000
setDataFromBlock:: PC = 4765320,  addr = 4357010, sameCmdDataDir? 1, size = 8, data = 400040
system.cpu.dcache.cpu_side::sendTimingResp: hasPC? 1, PC = 4765320, hasContextId? 1, contextID = 0, Size = 8, time = 1038000, Addr = 4357010, Dir = 2, Cmd = 2, Data = 400040
system.cpu.dcache.cpu_side::recvTimingReq: hasPC? 1, PC = 4765082, addr = 3102500, hasData? 0, NoData, Size = 8, time = 1100000, MemCmd: ReadReq, needsResponse? Y, addr = 3102500
system.mem_ctrls::access() Cmd: ReadExReq, DataDir: 2, CmdDir: 2, Size: 64, addr: 4050150, PC: 4546830, time: 230000
setDataFromBlock:: PC = 4765328,  addr = 4357020, sameCmdDataDir? 1, size = 8, data = 4
system.mem_ctrls::access() Cmd: ReadSharedReq, DataDir: 2, CmdDir: 2, Size: 64, addr: 3100500, PC: 4765082, time: 1100000
system.cpu.dcache.cpu_side::sendTimingResp: hasPC? 1, PC = 4765328, hasContextId? 1, contextID = 0, Size = 8, time = 1039000, Addr = 4357020, Dir = 2, Cmd = 2, Data = 4
system.cpu.dcache.cpu_side::recvTimingReq: hasPC? 1, PC = 4765096, addr = 4357010, hasData? 0, NoData, Size = 8, time = 1120000, MemCmd: ReadReq, needsResponse? Y, addr = 4357010
setDataFromBlock:: PC = 4765096,  addr = 4357010, sameCmdDataDir? 1, size = 8, data = 400040
system.cpu.dcache.cpu_side::recvTimingReq: hasPC? 1, PC = 4765108, addr = 4357020, hasData? 0, NoData, Size = 8, time = 1120000, MemCmd: ReadReq, needsResponse? Y, addr = 4357020
setDataFromBlock:: PC = 4765108,  addr = 4357020, sameCmdDataDir? 1, size = 8, data = 4
system.cpu.dcache.cpu_side::recvTimingReq: hasPC? 1, PC = 4546897, addr = 4052150, hasData? 0, NoData, Size = 4, time = 1120000, MemCmd: ReadReq, needsResponse? Y, addr = 4052150
system.cpu.dcache.cpu_side::sendTimingResp: hasPC? 1, PC = 4765096, hasContextId? 1, contextID = 0, Size = 8, time = 1120000, Addr = 4357010, Dir = 2, Cmd = 2, Data = 400040
system.cpu.dcache.cpu_side::sendTimingResp: hasPC? 1, PC = 4765108, hasContextId? 1, contextID = 0, Size = 8, time = 1120000, Addr = 4357020, Dir = 2, Cmd = 2, Data = 4
setDataFromBlock:: PC = 4765352,  addr = 4357030, sameCmdDataDir? 1, size = 4, data = 38
system.cpu.dcache.cpu_side::sendTimingResp: hasPC? 1, PC = 4765352, hasContextId? 1, contextID = 0, Size = 4, time = 1039000, Addr = 4357030, Dir = 2, Cmd = 2, Data = 38
system.cpu.dcache.cpu_side::recvTimingReq: hasPC? 1, PC = 4765082, addr = 3102510, hasData? 0, NoData, Size = 8, time = 1137500, MemCmd: ReadReq, needsResponse? Y, addr = 3102510
system.cpu.dcache.cpu_side::recvTimingReq: hasPC? 1, PC = 4765096, addr = 4357030, hasData? 0, NoData, Size = 8, time = 1137500, MemCmd: ReadReq, needsResponse? Y, addr = 4357030
setDataFromBlock:: PC = 4765096,  addr = 4357030, sameCmdDataDir? 1, size = 8, data = 38
system.cpu.dcache.cpu_side::sendTimingResp: hasPC? 1, PC = 4765096, hasContextId? 1, contextID = 0, Size = 8, time = 1137500, Addr = 4357030, Dir = 2, Cmd = 2, Data = 38
system.cpu.dcache.cpu_side::recvTimingReq: hasPC? 1, PC = 4765108, addr = 4357040, hasData? 0, NoData, Size = 8, time = 1138500, MemCmd: ReadReq, needsResponse? Y, addr = 4357040
writeDataToBlock:: PC = 4546830,  addr = 4052150, sameCmdDataDir? 1, size = 4, data = 0
setDataFromBlock:: PC = 4546897,  addr = 4052150, sameCmdDataDir? 1, size = 4, data = 0
system.cpu.dcache.cpu_side::sendTimingResp: hasPC? 1, PC = 4546830, hasContextId? 1, contextID = 0, Size = 4, time = 230000, Addr = 4052150, Dir = 2, Cmd = 5, noData
system.cpu.dcache.cpu_side::recvTimingReq: hasPC? 1, PC = 4546859, addr = 4336310, hasData? 1, Data = 7fffffffedb8, Size = 8, time = 231500, MemCmd: WriteReq, needsResponse? Y, addr = 4336310
system.cpu.dcache.cpu_side::sendTimingResp: hasPC? 1, PC = 4546897, hasContextId? 1, contextID = 0, Size = 4, time = 1120000, Addr = 4052150, Dir = 2, Cmd = 2, Data = 0
setDataFromBlock:: PC = 4765082,  addr = 3102500, sameCmdDataDir? 1, size = 8, data = 48b748
system.cpu.dcache.cpu_side::sendTimingResp: hasPC? 1, PC = 4765082, hasContextId? 1, contextID = 0, Size = 8, time = 1100000, Addr = 3102500, Dir = 2, Cmd = 2, Data = 48b748
system.mem_ctrls::access() Cmd: ReadSharedReq, DataDir: 2, CmdDir: 2, Size: 64, addr: 3100510, PC: 4765082, time: 1137500
setDataFromBlock:: PC = 4765082,  addr = 3102510, sameCmdDataDir? 1, size = 8, data = 48b5b0
system.cpu.dcache.cpu_side::sendTimingResp: hasPC? 1, PC = 4765082, hasContextId? 1, contextID = 0, Size = 8, time = 1137500, Addr = 3102510, Dir = 2, Cmd = 2, Data = 48b5b0
system.mem_ctrls::access() Cmd: ReadSharedReq, DataDir: 2, CmdDir: 2, Size: 64, addr: 4350040, PC: 4765108, time: 1138500
system.mem_ctrls::access() Cmd: ReadExReq, DataDir: 2, CmdDir: 2, Size: 64, addr: 4330310, PC: 4546859, time: 231500
setDataFromBlock:: PC = 4765108,  addr = 4357040, sameCmdDataDir? 1, size = 8, data = 5
system.cpu.dcache.cpu_side::sendTimingResp: hasPC? 1, PC = 4765108, hasContextId? 1, contextID = 0, Size = 8, time = 1138500, Addr = 4357040, Dir = 2, Cmd = 2, Data = 5
system.cpu.dcache.cpu_side::recvTimingReq: hasPC? 1, PC = 4765512, addr = 4357010, hasData? 0, NoData, Size = 8, time = 1252500, MemCmd: ReadReq, needsResponse? Y, addr = 4357010
setDataFromBlock:: PC = 4765512,  addr = 4357010, sameCmdDataDir? 1, size = 8, data = 400040
system.cpu.dcache.cpu_side::sendTimingResp: hasPC? 1, PC = 4765512, hasContextId? 1, contextID = 0, Size = 8, time = 1252500, Addr = 4357010, Dir = 2, Cmd = 2, Data = 400040
system.cpu.dcache.cpu_side::recvTimingReq: hasPC? 1, PC = 4765520, addr = 4357020, hasData? 0, NoData, Size = 8, time = 1253500, MemCmd: ReadReq, needsResponse? Y, addr = 4357020
setDataFromBlock:: PC = 4765520,  addr = 4357020, sameCmdDataDir? 1, size = 8, data = 4
system.cpu.dcache.cpu_side::sendTimingResp: hasPC? 1, PC = 4765520, hasContextId? 1, contextID = 0, Size = 8, time = 1253500, Addr = 4357020, Dir = 2, Cmd = 2, Data = 4
writeDataToBlock:: PC = 4546859,  addr = 4336310, sameCmdDataDir? 1, size = 8, data = 7fffffffedb8
system.cpu.dcache.cpu_side::recvTimingReq: hasPC? 1, PC = 4765096, addr = 4357030, hasData? 0, NoData, Size = 8, time = 1261000, MemCmd: ReadReq, needsResponse? Y, addr = 4357030
setDataFromBlock:: PC = 4765096,  addr = 4357030, sameCmdDataDir? 1, size = 8, data = 38
system.cpu.dcache.cpu_side::recvTimingReq: hasPC? 1, PC = 4765082, addr = 3102510, hasData? 0, NoData, Size = 8, time = 1261500, MemCmd: ReadReq, needsResponse? Y, addr = 3102510
setDataFromBlock:: PC = 4765082,  addr = 3102510, sameCmdDataDir? 1, size = 8, data = 48b5b0
system.cpu.dcache.cpu_side::sendTimingResp: hasPC? 1, PC = 4546859, hasContextId? 1, contextID = 0, Size = 8, time = 231500, Addr = 4336310, Dir = 2, Cmd = 5, noData
system.cpu.dcache.cpu_side::recvTimingReq: hasPC? 1, PC = 4765108, addr = 4357040, hasData? 0, NoData, Size = 8, time = 1262000, MemCmd: ReadReq, needsResponse? Y, addr = 4357040
setDataFromBlock:: PC = 4765108,  addr = 4357040, sameCmdDataDir? 1, size = 8, data = 5
system.cpu.dcache.cpu_side::recvTimingReq: hasPC? 1, PC = 4546866, addr = 4040500, hasData? 1, Data = 7fffffffed98, Size = 8, time = 279000, MemCmd: WriteReq, needsResponse? Y, addr = 4040500
system.cpu.dcache.cpu_side::sendTimingResp: hasPC? 1, PC = 4765096, hasContextId? 1, contextID = 0, Size = 8, time = 1261000, Addr = 4357030, Dir = 2, Cmd = 2, Data = 38
system.cpu.dcache.cpu_side::sendTimingResp: hasPC? 1, PC = 4765082, hasContextId? 1, contextID = 0, Size = 8, time = 1261500, Addr = 3102510, Dir = 2, Cmd = 2, Data = 48b5b0
system.cpu.dcache.cpu_side::sendTimingResp: hasPC? 1, PC = 4765108, hasContextId? 1, contextID = 0, Size = 8, time = 1262000, Addr = 4357040, Dir = 2, Cmd = 2, Data = 5
system.cpu.dcache.cpu_side::recvTimingReq: hasPC? 1, PC = 4765108, addr = 4357040, hasData? 0, NoData, Size = 8, time = 1270000, MemCmd: ReadReq, needsResponse? Y, addr = 4357040
setDataFromBlock:: PC = 4765108,  addr = 4357040, sameCmdDataDir? 1, size = 8, data = 5
system.cpu.dcache.cpu_side::sendTimingResp: hasPC? 1, PC = 4765108, hasContextId? 1, contextID = 0, Size = 8, time = 1270000, Addr = 4357040, Dir = 2, Cmd = 2, Data = 5
system.cpu.dcache.cpu_side::recvTimingReq: hasPC? 1, PC = 4765082, addr = 3102520, hasData? 0, NoData, Size = 8, time = 1280500, MemCmd: ReadReq, needsResponse? Y, addr = 3102520
system.cpu.dcache.cpu_side::recvTimingReq: hasPC? 1, PC = 4765096, addr = 4357050, hasData? 0, NoData, Size = 8, time = 1280500, MemCmd: ReadReq, needsResponse? Y, addr = 4357050
system.cpu.dcache.cpu_side::recvTimingReq: hasPC? 1, PC = 4765108, addr = 4357060, hasData? 0, NoData, Size = 8, time = 1281500, MemCmd: ReadReq, needsResponse? Y, addr = 4357060
system.mem_ctrls::access() Cmd: ReadExReq, DataDir: 2, CmdDir: 2, Size: 64, addr: 4040500, PC: 4546866, time: 279000
system.mem_ctrls::access() Cmd: ReadSharedReq, DataDir: 2, CmdDir: 2, Size: 64, addr: 3100520, PC: 4765082, time: 1280500
writeDataToBlock:: PC = 4546866,  addr = 4040500, sameCmdDataDir? 1, size = 8, data = 7fffffffed98
system.cpu.dcache.cpu_side::sendTimingResp: hasPC? 1, PC = 4546866, hasContextId? 1, contextID = 0, Size = 8, time = 279000, Addr = 4040500, Dir = 2, Cmd = 5, noData
system.cpu.dcache.cpu_side::recvTimingReq: hasPC? 1, PC = 4546897, addr = 4052150, hasData? 0, NoData, Size = 4, time = 1313000, MemCmd: ReadReq, needsResponse? Y, addr = 4052150
setDataFromBlock:: PC = 4546897,  addr = 4052150, sameCmdDataDir? 1, size = 4, data = 0
system.cpu.dcache.cpu_side::recvTimingReq: hasPC? 1, PC = 4546892, addr = 4355330, hasData? 1, Data = 456151, Size = 8, time = 287000, MemCmd: WriteReq, needsResponse? Y, addr = 4355330
system.cpu.dcache.cpu_side::sendTimingResp: hasPC? 1, PC = 4546897, hasContextId? 1, contextID = 0, Size = 4, time = 1313000, Addr = 4052150, Dir = 2, Cmd = 2, Data = 0
system.mem_ctrls::access() Cmd: ReadSharedReq, DataDir: 2, CmdDir: 2, Size: 64, addr: 4350050, PC: 4765096, time: 1280500
system.mem_ctrls::access() Cmd: ReadSharedReq, DataDir: 2, CmdDir: 2, Size: 64, addr: 4350060, PC: 4765108, time: 1281500
setDataFromBlock:: PC = 4765082,  addr = 3102520, sameCmdDataDir? 1, size = 8, data = 48b728
system.cpu.dcache.cpu_side::sendTimingResp: hasPC? 1, PC = 4765082, hasContextId? 1, contextID = 0, Size = 8, time = 1280500, Addr = 3102520, Dir = 2, Cmd = 2, Data = 48b728
system.mem_ctrls::access() Cmd: ReadExReq, DataDir: 2, CmdDir: 2, Size: 64, addr: 4350330, PC: 4546892, time: 287000
system.cpu.dcache.cpu_side::recvTimingReq: hasPC? 1, PC = 4765480, addr = 4357050, hasData? 0, NoData, Size = 8, time = 1345500, MemCmd: ReadReq, needsResponse? Y, addr = 4357050
system.cpu.dcache.cpu_side::recvTimingReq: hasPC? 1, PC = 4765488, addr = 4357060, hasData? 0, NoData, Size = 8, time = 1346500, MemCmd: ReadReq, needsResponse? Y, addr = 4357060
system.cpu.dcache.cpu_side::recvTimingReq: hasPC? 1, PC = 4765512, addr = 4357070, hasData? 0, NoData, Size = 8, time = 1346500, MemCmd: ReadReq, needsResponse? Y, addr = 4357070
setDataFromBlock:: PC = 4765096,  addr = 4357050, sameCmdDataDir? 1, size = 8, data = 5
setDataFromBlock:: PC = 4765480,  addr = 4357050, sameCmdDataDir? 1, size = 8, data = 5
system.cpu.dcache.cpu_side::sendTimingResp: hasPC? 1, PC = 4765096, hasContextId? 1, contextID = 0, Size = 8, time = 1280500, Addr = 4357050, Dir = 2, Cmd = 2, Data = 5
system.cpu.dcache.cpu_side::sendTimingResp: hasPC? 1, PC = 4765480, hasContextId? 1, contextID = 0, Size = 8, time = 1345500, Addr = 4357050, Dir = 2, Cmd = 2, Data = 5
setDataFromBlock:: PC = 4765108,  addr = 4357060, sameCmdDataDir? 1, size = 8, data = 7
setDataFromBlock:: PC = 4765488,  addr = 4357060, sameCmdDataDir? 1, size = 8, data = 7
system.cpu.dcache.cpu_side::sendTimingResp: hasPC? 1, PC = 4765108, hasContextId? 1, contextID = 0, Size = 8, time = 1281500, Addr = 4357060, Dir = 2, Cmd = 2, Data = 7
system.cpu.dcache.cpu_side::sendTimingResp: hasPC? 1, PC = 4765488, hasContextId? 1, contextID = 0, Size = 8, time = 1346500, Addr = 4357060, Dir = 2, Cmd = 2, Data = 7
writeDataToBlock:: PC = 4546892,  addr = 4355330, sameCmdDataDir? 1, size = 8, data = 456151
system.cpu.dcache.cpu_side::sendTimingResp: hasPC? 1, PC = 4546892, hasContextId? 1, contextID = 0, Size = 8, time = 287000, Addr = 4355330, Dir = 2, Cmd = 5, noData
system.cpu.dcache.cpu_side::recvTimingReq: hasPC? 1, PC = 4764992, addr = 4355320, hasData? 1, Data = 0, Size = 8, time = 365500, MemCmd: WriteReq, needsResponse? Y, addr = 4355320
system.cpu.dcache.cpu_side::recvTimingReq: hasPC? 1, PC = 4765082, addr = 3102540, hasData? 0, NoData, Size = 8, time = 1371500, MemCmd: ReadReq, needsResponse? Y, addr = 3102540
system.cpu.dcache.cpu_side::recvTimingReq: hasPC? 1, PC = 4765096, addr = 4357070, hasData? 0, NoData, Size = 8, time = 1371500, MemCmd: ReadReq, needsResponse? Y, addr = 4357070
system.cpu.dcache.cpu_side::recvTimingReq: hasPC? 1, PC = 4765108, addr = 4357100, hasData? 0, NoData, Size = 8, time = 1372500, MemCmd: ReadReq, needsResponse? Y, addr = 4357100
system.mem_ctrls::access() Cmd: ReadSharedReq, DataDir: 2, CmdDir: 2, Size: 64, addr: 4350070, PC: 4765512, time: 1346500
system.mem_ctrls::access() Cmd: ReadExReq, DataDir: 2, CmdDir: 2, Size: 64, addr: 4350320, PC: 4764992, time: 365500
system.mem_ctrls::access() Cmd: ReadSharedReq, DataDir: 2, CmdDir: 2, Size: 64, addr: 3100540, PC: 4765082, time: 1371500
setDataFromBlock:: PC = 4765512,  addr = 4357070, sameCmdDataDir? 1, size = 8, data = 0
setDataFromBlock:: PC = 4765096,  addr = 4357070, sameCmdDataDir? 1, size = 8, data = 0
system.cpu.dcache.cpu_side::sendTimingResp: hasPC? 1, PC = 4765512, hasContextId? 1, contextID = 0, Size = 8, time = 1346500, Addr = 4357070, Dir = 2, Cmd = 2, Data = 0
system.cpu.dcache.cpu_side::recvTimingReq: hasPC? 1, PC = 4765216, addr = 4355320, hasData? 0, NoData, Size = 8, time = 1409000, MemCmd: ReadReq, needsResponse? Y, addr = 4355320
system.cpu.dcache.cpu_side::recvTimingReq: hasPC? 1, PC = 4765218, addr = 4355330, hasData? 0, NoData, Size = 8, time = 1409000, MemCmd: ReadReq, needsResponse? Y, addr = 4355330
setDataFromBlock:: PC = 4765218,  addr = 4355330, sameCmdDataDir? 1, size = 8, data = 456151
system.cpu.dcache.cpu_side::sendTimingResp: hasPC? 1, PC = 4765096, hasContextId? 1, contextID = 0, Size = 8, time = 1371500, Addr = 4357070, Dir = 2, Cmd = 2, Data = 0
system.cpu.dcache.cpu_side::sendTimingResp: hasPC? 1, PC = 4765218, hasContextId? 1, contextID = 0, Size = 8, time = 1409000, Addr = 4355330, Dir = 2, Cmd = 2, Data = 456151
system.mem_ctrls::access() Cmd: ReadSharedReq, DataDir: 2, CmdDir: 2, Size: 64, addr: 4350100, PC: 4765108, time: 1372500
system.cpu.dcache.cpu_side::recvTimingReq: hasPC? 1, PC = 4546897, addr = 4052150, hasData? 0, NoData, Size = 4, time = 1416000, MemCmd: ReadReq, needsResponse? Y, addr = 4052150
setDataFromBlock:: PC = 4546897,  addr = 4052150, sameCmdDataDir? 1, size = 4, data = 0
system.cpu.dcache.cpu_side::sendTimingResp: hasPC? 1, PC = 4546897, hasContextId? 1, contextID = 0, Size = 4, time = 1416000, Addr = 4052150, Dir = 2, Cmd = 2, Data = 0
writeDataToBlock:: PC = 4764992,  addr = 4355320, sameCmdDataDir? 1, size = 8, data = 0
setDataFromBlock:: PC = 4765216,  addr = 4355320, sameCmdDataDir? 1, size = 8, data = 0
system.cpu.dcache.cpu_side::sendTimingResp: hasPC? 1, PC = 4764992, hasContextId? 1, contextID = 0, Size = 8, time = 365500, Addr = 4355320, Dir = 2, Cmd = 5, noData
system.cpu.dcache.cpu_side::recvTimingReq: hasPC? 1, PC = 4764997, addr = 4355310, hasData? 1, Data = 0, Size = 8, time = 366000, MemCmd: WriteReq, needsResponse? Y, addr = 4355310
system.cpu.dcache.cpu_side::sendTimingResp: hasPC? 1, PC = 4765216, hasContextId? 1, contextID = 0, Size = 8, time = 1409000, Addr = 4355320, Dir = 2, Cmd = 2, Data = 0
setDataFromBlock:: PC = 4765082,  addr = 3102540, sameCmdDataDir? 1, size = 8, data = 48b5b0
system.cpu.dcache.cpu_side::sendTimingResp: hasPC? 1, PC = 4765082, hasContextId? 1, contextID = 0, Size = 8, time = 1371500, Addr = 3102540, Dir = 2, Cmd = 2, Data = 48b5b0
setDataFromBlock:: PC = 4765108,  addr = 4357100, sameCmdDataDir? 1, size = 8, data = 8
system.cpu.dcache.cpu_side::sendTimingResp: hasPC? 1, PC = 4765108, hasContextId? 1, contextID = 0, Size = 8, time = 1372500, Addr = 4357100, Dir = 2, Cmd = 2, Data = 8
system.cpu.dcache.cpu_side::recvTimingReq: hasPC? 1, PC = 4765108, addr = 4357100, hasData? 0, NoData, Size = 8, time = 1448500, MemCmd: ReadReq, needsResponse? Y, addr = 4357100
setDataFromBlock:: PC = 4765108,  addr = 4357100, sameCmdDataDir? 1, size = 8, data = 8
system.cpu.dcache.cpu_side::sendTimingResp: hasPC? 1, PC = 4765108, hasContextId? 1, contextID = 0, Size = 8, time = 1448500, Addr = 4357100, Dir = 2, Cmd = 2, Data = 8
system.cpu.dcache.cpu_side::recvTimingReq: hasPC? 1, PC = 4765214, addr = 4355310, hasData? 0, NoData, Size = 8, time = 1451000, MemCmd: ReadReq, needsResponse? Y, addr = 4355310
system.mem_ctrls::access() Cmd: ReadExReq, DataDir: 2, CmdDir: 2, Size: 64, addr: 4350310, PC: 4764997, time: 366000
system.cpu.dcache.cpu_side::recvTimingReq: hasPC? 1, PC = 4765082, addr = 3102550, hasData? 0, NoData, Size = 8, time = 1458000, MemCmd: ReadReq, needsResponse? Y, addr = 3102550
system.cpu.dcache.cpu_side::recvTimingReq: hasPC? 1, PC = 4765096, addr = 4357110, hasData? 0, NoData, Size = 8, time = 1458000, MemCmd: ReadReq, needsResponse? Y, addr = 4357110
system.cpu.dcache.cpu_side::recvTimingReq: hasPC? 1, PC = 4765108, addr = 4357120, hasData? 0, NoData, Size = 8, time = 1459000, MemCmd: ReadReq, needsResponse? Y, addr = 4357120
writeDataToBlock:: PC = 4764997,  addr = 4355310, sameCmdDataDir? 1, size = 8, data = 0
setDataFromBlock:: PC = 4765214,  addr = 4355310, sameCmdDataDir? 1, size = 8, data = 0
system.cpu.dcache.cpu_side::sendTimingResp: hasPC? 1, PC = 4764997, hasContextId? 1, contextID = 0, Size = 8, time = 366000, Addr = 4355310, Dir = 2, Cmd = 5, noData
system.cpu.dcache.cpu_side::recvTimingReq: hasPC? 1, PC = 4765214, addr = 4355310, hasData? 0, NoData, Size = 8, time = 1487000, MemCmd: ReadReq, needsResponse? Y, addr = 4355310
setDataFromBlock:: PC = 4765214,  addr = 4355310, sameCmdDataDir? 1, size = 8, data = 0
system.cpu.dcache.cpu_side::recvTimingReq: hasPC? 1, PC = 4765216, addr = 4355320, hasData? 0, NoData, Size = 8, time = 1487000, MemCmd: ReadReq, needsResponse? Y, addr = 4355320
setDataFromBlock:: PC = 4765216,  addr = 4355320, sameCmdDataDir? 1, size = 8, data = 0
system.cpu.dcache.cpu_side::recvTimingReq: hasPC? 1, PC = 4765218, addr = 4355330, hasData? 0, NoData, Size = 8, time = 1487000, MemCmd: ReadReq, needsResponse? Y, addr = 4355330
setDataFromBlock:: PC = 4765218,  addr = 4355330, sameCmdDataDir? 1, size = 8, data = 456151
system.cpu.dcache.cpu_side::recvTimingReq: hasPC? 1, PC = 4765002, addr = 4355300, hasData? 1, Data = 456aa0, Size = 8, time = 366500, MemCmd: WriteReq, needsResponse? Y, addr = 4355300
system.cpu.dcache.cpu_side::sendTimingResp: hasPC? 1, PC = 4765214, hasContextId? 1, contextID = 0, Size = 8, time = 1451000, Addr = 4355310, Dir = 2, Cmd = 2, Data = 0
system.cpu.dcache.cpu_side::sendTimingResp: hasPC? 1, PC = 4765216, hasContextId? 1, contextID = 0, Size = 8, time = 1487000, Addr = 4355320, Dir = 2, Cmd = 2, Data = 0
system.cpu.dcache.cpu_side::sendTimingResp: hasPC? 1, PC = 4765218, hasContextId? 1, contextID = 0, Size = 8, time = 1487000, Addr = 4355330, Dir = 2, Cmd = 2, Data = 456151
system.cpu.dcache.cpu_side::sendTimingResp: hasPC? 1, PC = 4765214, hasContextId? 1, contextID = 0, Size = 8, time = 1487000, Addr = 4355310, Dir = 2, Cmd = 2, Data = 0
system.mem_ctrls::access() Cmd: ReadSharedReq, DataDir: 2, CmdDir: 2, Size: 64, addr: 3100550, PC: 4765082, time: 1458000
system.mem_ctrls::access() Cmd: ReadSharedReq, DataDir: 2, CmdDir: 2, Size: 64, addr: 4350110, PC: 4765096, time: 1458000
setDataFromBlock:: PC = 4765082,  addr = 3102550, sameCmdDataDir? 1, size = 8, data = 48b5b0
system.cpu.dcache.cpu_side::sendTimingResp: hasPC? 1, PC = 4765082, hasContextId? 1, contextID = 0, Size = 8, time = 1458000, Addr = 3102550, Dir = 2, Cmd = 2, Data = 48b5b0
system.cpu.dcache.cpu_side::recvTimingReq: hasPC? 1, PC = 4546897, addr = 4052150, hasData? 0, NoData, Size = 4, time = 1550000, MemCmd: ReadReq, needsResponse? Y, addr = 4052150
setDataFromBlock:: PC = 4546897,  addr = 4052150, sameCmdDataDir? 1, size = 4, data = 0
system.cpu.dcache.cpu_side::sendTimingResp: hasPC? 1, PC = 4546897, hasContextId? 1, contextID = 0, Size = 4, time = 1550000, Addr = 4052150, Dir = 2, Cmd = 2, Data = 0
setDataFromBlock:: PC = 4765096,  addr = 4357110, sameCmdDataDir? 1, size = 8, data = 0
system.cpu.dcache.cpu_side::sendTimingResp: hasPC? 1, PC = 4765096, hasContextId? 1, contextID = 0, Size = 8, time = 1458000, Addr = 4357110, Dir = 2, Cmd = 2, Data = 0
system.cpu.dcache.cpu_side::recvTimingReq: hasPC? 1, PC = 4765108, addr = 4357120, hasData? 0, NoData, Size = 8, time = 1563000, MemCmd: ReadReq, needsResponse? Y, addr = 4357120
system.cpu.dcache.cpu_side::recvTimingReq: hasPC? 1, PC = 4765213, addr = 4355300, hasData? 0, NoData, Size = 8, time = 1564500, MemCmd: ReadReq, needsResponse? Y, addr = 4355300
system.cpu.dcache.cpu_side::recvTimingReq: hasPC? 1, PC = 4765214, addr = 4355310, hasData? 0, NoData, Size = 8, time = 1565000, MemCmd: ReadReq, needsResponse? Y, addr = 4355310
setDataFromBlock:: PC = 4765214,  addr = 4355310, sameCmdDataDir? 1, size = 8, data = 0
system.cpu.dcache.cpu_side::recvTimingReq: hasPC? 1, PC = 4765216, addr = 4355320, hasData? 0, NoData, Size = 8, time = 1565500, MemCmd: ReadReq, needsResponse? Y, addr = 4355320
setDataFromBlock:: PC = 4765216,  addr = 4355320, sameCmdDataDir? 1, size = 8, data = 0
system.cpu.dcache.cpu_side::sendTimingResp: hasPC? 1, PC = 4765214, hasContextId? 1, contextID = 0, Size = 8, time = 1565000, Addr = 4355310, Dir = 2, Cmd = 2, Data = 0
system.cpu.dcache.cpu_side::recvTimingReq: hasPC? 1, PC = 4765218, addr = 4355330, hasData? 0, NoData, Size = 8, time = 1566000, MemCmd: ReadReq, needsResponse? Y, addr = 4355330
setDataFromBlock:: PC = 4765218,  addr = 4355330, sameCmdDataDir? 1, size = 8, data = 456151
system.cpu.dcache.cpu_side::sendTimingResp: hasPC? 1, PC = 4765216, hasContextId? 1, contextID = 0, Size = 8, time = 1565500, Addr = 4355320, Dir = 2, Cmd = 2, Data = 0
system.cpu.dcache.cpu_side::sendTimingResp: hasPC? 1, PC = 4765218, hasContextId? 1, contextID = 0, Size = 8, time = 1566000, Addr = 4355330, Dir = 2, Cmd = 2, Data = 456151
system.mem_ctrls::access() Cmd: ReadSharedReq, DataDir: 2, CmdDir: 2, Size: 64, addr: 4350120, PC: 4765108, time: 1459000
system.cpu.dcache.cpu_side::recvTimingReq: hasPC? 1, PC = 4546897, addr = 4052150, hasData? 0, NoData, Size = 4, time = 1573000, MemCmd: ReadReq, needsResponse? Y, addr = 4052150
setDataFromBlock:: PC = 4546897,  addr = 4052150, sameCmdDataDir? 1, size = 4, data = 0
system.cpu.dcache.cpu_side::sendTimingResp: hasPC? 1, PC = 4546897, hasContextId? 1, contextID = 0, Size = 4, time = 1573000, Addr = 4052150, Dir = 2, Cmd = 2, Data = 0
system.mem_ctrls::access() Cmd: ReadExReq, DataDir: 2, CmdDir: 2, Size: 64, addr: 4350300, PC: 4765002, time: 366500
setDataFromBlock:: PC = 4765108,  addr = 4357120, sameCmdDataDir? 1, size = 8, data = 9
setDataFromBlock:: PC = 4765108,  addr = 4357120, sameCmdDataDir? 1, size = 8, data = 9
system.cpu.dcache.cpu_side::sendTimingResp: hasPC? 1, PC = 4765108, hasContextId? 1, contextID = 0, Size = 8, time = 1459000, Addr = 4357120, Dir = 2, Cmd = 2, Data = 9
system.cpu.dcache.cpu_side::sendTimingResp: hasPC? 1, PC = 4765108, hasContextId? 1, contextID = 0, Size = 8, time = 1563000, Addr = 4357120, Dir = 2, Cmd = 2, Data = 9
writeDataToBlock:: PC = 4765002,  addr = 4355300, sameCmdDataDir? 1, size = 8, data = 456aa0
setDataFromBlock:: PC = 4765213,  addr = 4355300, sameCmdDataDir? 1, size = 8, data = 456aa0
system.cpu.dcache.cpu_side::sendTimingResp: hasPC? 1, PC = 4765002, hasContextId? 1, contextID = 0, Size = 8, time = 366500, Addr = 4355300, Dir = 2, Cmd = 5, noData
system.cpu.dcache.cpu_side::recvTimingReq: hasPC? 1, PC = 4765003, addr = 4355270, hasData? 1, Data = 456ae0, Size = 8, time = 367000, MemCmd: WriteReq, needsResponse? Y, addr = 4355270
system.cpu.dcache.cpu_side::sendTimingResp: hasPC? 1, PC = 4765213, hasContextId? 1, contextID = 0, Size = 8, time = 1564500, Addr = 4355300, Dir = 2, Cmd = 2, Data = 456aa0
system.cpu.dcache.cpu_side::recvTimingReq: hasPC? 1, PC = 4765082, addr = 3102560, hasData? 0, NoData, Size = 8, time = 1613000, MemCmd: ReadReq, needsResponse? Y, addr = 3102560
system.cpu.dcache.cpu_side::recvTimingReq: hasPC? 1, PC = 4765096, addr = 4357130, hasData? 0, NoData, Size = 8, time = 1613000, MemCmd: ReadReq, needsResponse? Y, addr = 4357130
system.cpu.dcache.cpu_side::recvTimingReq: hasPC? 1, PC = 4765108, addr = 4357140, hasData? 0, NoData, Size = 8, time = 1614000, MemCmd: ReadReq, needsResponse? Y, addr = 4357140
system.mem_ctrls::access() Cmd: ReadExReq, DataDir: 2, CmdDir: 2, Size: 64, addr: 4350270, PC: 4765003, time: 367000
system.mem_ctrls::access() Cmd: ReadSharedReq, DataDir: 2, CmdDir: 2, Size: 64, addr: 3100560, PC: 4765082, time: 1613000
system.mem_ctrls::access() Cmd: ReadSharedReq, DataDir: 2, CmdDir: 2, Size: 64, addr: 4350130, PC: 4765096, time: 1613000
writeDataToBlock:: PC = 4765003,  addr = 4355270, sameCmdDataDir? 1, size = 8, data = 456ae0
system.cpu.dcache.cpu_side::sendTimingResp: hasPC? 1, PC = 4765003, hasContextId? 1, contextID = 0, Size = 8, time = 367000, Addr = 4355270, Dir = 2, Cmd = 5, noData
system.cpu.dcache.cpu_side::recvTimingReq: hasPC? 1, PC = 4765212, addr = 4355270, hasData? 0, NoData, Size = 8, time = 1670000, MemCmd: ReadReq, needsResponse? Y, addr = 4355270
setDataFromBlock:: PC = 4765212,  addr = 4355270, sameCmdDataDir? 1, size = 8, data = 456ae0
system.cpu.dcache.cpu_side::recvTimingReq: hasPC? 1, PC = 4765213, addr = 4355300, hasData? 0, NoData, Size = 8, time = 1670000, MemCmd: ReadReq, needsResponse? Y, addr = 4355300
setDataFromBlock:: PC = 4765213,  addr = 4355300, sameCmdDataDir? 1, size = 8, data = 456aa0
system.cpu.dcache.cpu_side::recvTimingReq: hasPC? 1, PC = 4765214, addr = 4355310, hasData? 0, NoData, Size = 8, time = 1670000, MemCmd: ReadReq, needsResponse? Y, addr = 4355310
setDataFromBlock:: PC = 4765214,  addr = 4355310, sameCmdDataDir? 1, size = 8, data = 0
system.cpu.dcache.cpu_side::recvTimingReq: hasPC? 1, PC = 4765216, addr = 4355320, hasData? 0, NoData, Size = 8, time = 1670000, MemCmd: ReadReq, needsResponse? Y, addr = 4355320
setDataFromBlock:: PC = 4765216,  addr = 4355320, sameCmdDataDir? 1, size = 8, data = 0
system.cpu.dcache.cpu_side::recvTimingReq: hasPC? 1, PC = 4765218, addr = 4355330, hasData? 0, NoData, Size = 8, time = 1670500, MemCmd: ReadReq, needsResponse? Y, addr = 4355330
setDataFromBlock:: PC = 4765218,  addr = 4355330, sameCmdDataDir? 1, size = 8, data = 456151
system.mem_ctrls::access() Cmd: ReadSharedReq, DataDir: 2, CmdDir: 2, Size: 64, addr: 4350140, PC: 4765108, time: 1614000
system.cpu.dcache.cpu_side::sendTimingResp: hasPC? 1, PC = 4765212, hasContextId? 1, contextID = 0, Size = 8, time = 1670000, Addr = 4355270, Dir = 2, Cmd = 2, Data = 456ae0
system.cpu.dcache.cpu_side::sendTimingResp: hasPC? 1, PC = 4765213, hasContextId? 1, contextID = 0, Size = 8, time = 1670000, Addr = 4355300, Dir = 2, Cmd = 2, Data = 456aa0
system.cpu.dcache.cpu_side::sendTimingResp: hasPC? 1, PC = 4765214, hasContextId? 1, contextID = 0, Size = 8, time = 1670000, Addr = 4355310, Dir = 2, Cmd = 2, Data = 0
system.cpu.dcache.cpu_side::sendTimingResp: hasPC? 1, PC = 4765216, hasContextId? 1, contextID = 0, Size = 8, time = 1670000, Addr = 4355320, Dir = 2, Cmd = 2, Data = 0
system.cpu.dcache.cpu_side::sendTimingResp: hasPC? 1, PC = 4765218, hasContextId? 1, contextID = 0, Size = 8, time = 1670500, Addr = 4355330, Dir = 2, Cmd = 2, Data = 456151
system.cpu.dcache.cpu_side::recvTimingReq: hasPC? 1, PC = 4546897, addr = 4052150, hasData? 0, NoData, Size = 4, time = 1681500, MemCmd: ReadReq, needsResponse? Y, addr = 4052150
setDataFromBlock:: PC = 4546897,  addr = 4052150, sameCmdDataDir? 1, size = 4, data = 0
setDataFromBlock:: PC = 4765082,  addr = 3102560, sameCmdDataDir? 1, size = 8, data = 48b5b0
system.cpu.dcache.cpu_side::sendTimingResp: hasPC? 1, PC = 4546897, hasContextId? 1, contextID = 0, Size = 4, time = 1681500, Addr = 4052150, Dir = 2, Cmd = 2, Data = 0
system.cpu.dcache.cpu_side::sendTimingResp: hasPC? 1, PC = 4765082, hasContextId? 1, contextID = 0, Size = 8, time = 1613000, Addr = 3102560, Dir = 2, Cmd = 2, Data = 48b5b0
setDataFromBlock:: PC = 4765096,  addr = 4357130, sameCmdDataDir? 1, size = 8, data = 4001c0
system.cpu.dcache.cpu_side::sendTimingResp: hasPC? 1, PC = 4765096, hasContextId? 1, contextID = 0, Size = 8, time = 1613000, Addr = 4357130, Dir = 2, Cmd = 2, Data = 4001c0
system.cpu.dcache.cpu_side::recvTimingReq: hasPC? 1, PC = 4765108, addr = 4357140, hasData? 0, NoData, Size = 8, time = 1695500, MemCmd: ReadReq, needsResponse? Y, addr = 4357140
system.cpu.dcache.cpu_side::recvTimingReq: hasPC? 1, PC = 4765212, addr = 4355270, hasData? 0, NoData, Size = 8, time = 1697000, MemCmd: ReadReq, needsResponse? Y, addr = 4355270
setDataFromBlock:: PC = 4765212,  addr = 4355270, sameCmdDataDir? 1, size = 8, data = 456ae0
system.cpu.dcache.cpu_side::recvTimingReq: hasPC? 1, PC = 4765213, addr = 4355300, hasData? 0, NoData, Size = 8, time = 1697000, MemCmd: ReadReq, needsResponse? Y, addr = 4355300
setDataFromBlock:: PC = 4765213,  addr = 4355300, sameCmdDataDir? 1, size = 8, data = 456aa0
system.cpu.dcache.cpu_side::recvTimingReq: hasPC? 1, PC = 4765214, addr = 4355310, hasData? 0, NoData, Size = 8, time = 1697500, MemCmd: ReadReq, needsResponse? Y, addr = 4355310
setDataFromBlock:: PC = 4765214,  addr = 4355310, sameCmdDataDir? 1, size = 8, data = 0
system.cpu.dcache.cpu_side::sendTimingResp: hasPC? 1, PC = 4765212, hasContextId? 1, contextID = 0, Size = 8, time = 1697000, Addr = 4355270, Dir = 2, Cmd = 2, Data = 456ae0
system.cpu.dcache.cpu_side::recvTimingReq: hasPC? 1, PC = 4765216, addr = 4355320, hasData? 0, NoData, Size = 8, time = 1698000, MemCmd: ReadReq, needsResponse? Y, addr = 4355320
setDataFromBlock:: PC = 4765216,  addr = 4355320, sameCmdDataDir? 1, size = 8, data = 0
system.cpu.dcache.cpu_side::sendTimingResp: hasPC? 1, PC = 4765213, hasContextId? 1, contextID = 0, Size = 8, time = 1697000, Addr = 4355300, Dir = 2, Cmd = 2, Data = 456aa0
system.cpu.dcache.cpu_side::sendTimingResp: hasPC? 1, PC = 4765214, hasContextId? 1, contextID = 0, Size = 8, time = 1697500, Addr = 4355310, Dir = 2, Cmd = 2, Data = 0
system.cpu.dcache.cpu_side::recvTimingReq: hasPC? 1, PC = 4765218, addr = 4355330, hasData? 0, NoData, Size = 8, time = 1698500, MemCmd: ReadReq, needsResponse? Y, addr = 4355330
setDataFromBlock:: PC = 4765218,  addr = 4355330, sameCmdDataDir? 1, size = 8, data = 456151
system.cpu.dcache.cpu_side::sendTimingResp: hasPC? 1, PC = 4765216, hasContextId? 1, contextID = 0, Size = 8, time = 1698000, Addr = 4355320, Dir = 2, Cmd = 2, Data = 0
system.cpu.dcache.cpu_side::sendTimingResp: hasPC? 1, PC = 4765218, hasContextId? 1, contextID = 0, Size = 8, time = 1698500, Addr = 4355330, Dir = 2, Cmd = 2, Data = 456151
setDataFromBlock:: PC = 4765108,  addr = 4357140, sameCmdDataDir? 1, size = 8, data = b
setDataFromBlock:: PC = 4765108,  addr = 4357140, sameCmdDataDir? 1, size = 8, data = b
system.cpu.dcache.cpu_side::sendTimingResp: hasPC? 1, PC = 4765108, hasContextId? 1, contextID = 0, Size = 8, time = 1614000, Addr = 4357140, Dir = 2, Cmd = 2, Data = b
system.cpu.dcache.cpu_side::sendTimingResp: hasPC? 1, PC = 4765108, hasContextId? 1, contextID = 0, Size = 8, time = 1695500, Addr = 4357140, Dir = 2, Cmd = 2, Data = b
system.cpu.dcache.cpu_side::recvTimingReq: hasPC? 1, PC = 4546897, addr = 4052150, hasData? 0, NoData, Size = 4, time = 1705500, MemCmd: ReadReq, needsResponse? Y, addr = 4052150
setDataFromBlock:: PC = 4546897,  addr = 4052150, sameCmdDataDir? 1, size = 4, data = 0
system.cpu.dcache.cpu_side::sendTimingResp: hasPC? 1, PC = 4546897, hasContextId? 1, contextID = 0, Size = 4, time = 1705500, Addr = 4052150, Dir = 2, Cmd = 2, Data = 0
system.cpu.dcache.cpu_side::recvTimingReq: hasPC? 1, PC = 4765082, addr = 3102600, hasData? 0, NoData, Size = 8, time = 1715000, MemCmd: ReadReq, needsResponse? Y, addr = 3102600
system.cpu.dcache.cpu_side::recvTimingReq: hasPC? 1, PC = 4765096, addr = 4357150, hasData? 0, NoData, Size = 8, time = 1715000, MemCmd: ReadReq, needsResponse? Y, addr = 4357150
system.cpu.dcache.cpu_side::recvTimingReq: hasPC? 1, PC = 4765108, addr = 4357160, hasData? 0, NoData, Size = 8, time = 1716000, MemCmd: ReadReq, needsResponse? Y, addr = 4357160
system.cpu.dcache.cpu_side::recvTimingReq: hasPC? 1, PC = 4765212, addr = 4355270, hasData? 0, NoData, Size = 8, time = 1717500, MemCmd: ReadReq, needsResponse? Y, addr = 4355270
setDataFromBlock:: PC = 4765212,  addr = 4355270, sameCmdDataDir? 1, size = 8, data = 456ae0
system.cpu.dcache.cpu_side::sendTimingResp: hasPC? 1, PC = 4765212, hasContextId? 1, contextID = 0, Size = 8, time = 1717500, Addr = 4355270, Dir = 2, Cmd = 2, Data = 456ae0
system.cpu.dcache.cpu_side::recvTimingReq: hasPC? 1, PC = 4765212, addr = 4355270, hasData? 0, NoData, Size = 8, time = 1722500, MemCmd: ReadReq, needsResponse? Y, addr = 4355270
setDataFromBlock:: PC = 4765212,  addr = 4355270, sameCmdDataDir? 1, size = 8, data = 456ae0
system.cpu.dcache.cpu_side::recvTimingReq: hasPC? 1, PC = 4765213, addr = 4355300, hasData? 0, NoData, Size = 8, time = 1723000, MemCmd: ReadReq, needsResponse? Y, addr = 4355300
setDataFromBlock:: PC = 4765213,  addr = 4355300, sameCmdDataDir? 1, size = 8, data = 456aa0
system.cpu.dcache.cpu_side::sendTimingResp: hasPC? 1, PC = 4765212, hasContextId? 1, contextID = 0, Size = 8, time = 1722500, Addr = 4355270, Dir = 2, Cmd = 2, Data = 456ae0
system.cpu.dcache.cpu_side::recvTimingReq: hasPC? 1, PC = 4765214, addr = 4355310, hasData? 0, NoData, Size = 8, time = 1723500, MemCmd: ReadReq, needsResponse? Y, addr = 4355310
setDataFromBlock:: PC = 4765214,  addr = 4355310, sameCmdDataDir? 1, size = 8, data = 0
system.cpu.dcache.cpu_side::sendTimingResp: hasPC? 1, PC = 4765213, hasContextId? 1, contextID = 0, Size = 8, time = 1723000, Addr = 4355300, Dir = 2, Cmd = 2, Data = 456aa0
system.cpu.dcache.cpu_side::recvTimingReq: hasPC? 1, PC = 4765216, addr = 4355320, hasData? 0, NoData, Size = 8, time = 1724000, MemCmd: ReadReq, needsResponse? Y, addr = 4355320
setDataFromBlock:: PC = 4765216,  addr = 4355320, sameCmdDataDir? 1, size = 8, data = 0
system.cpu.dcache.cpu_side::sendTimingResp: hasPC? 1, PC = 4765214, hasContextId? 1, contextID = 0, Size = 8, time = 1723500, Addr = 4355310, Dir = 2, Cmd = 2, Data = 0
system.cpu.dcache.cpu_side::recvTimingReq: hasPC? 1, PC = 4765218, addr = 4355330, hasData? 0, NoData, Size = 8, time = 1724500, MemCmd: ReadReq, needsResponse? Y, addr = 4355330
setDataFromBlock:: PC = 4765218,  addr = 4355330, sameCmdDataDir? 1, size = 8, data = 456151
system.cpu.dcache.cpu_side::sendTimingResp: hasPC? 1, PC = 4765216, hasContextId? 1, contextID = 0, Size = 8, time = 1724000, Addr = 4355320, Dir = 2, Cmd = 2, Data = 0
system.cpu.dcache.cpu_side::sendTimingResp: hasPC? 1, PC = 4765218, hasContextId? 1, contextID = 0, Size = 8, time = 1724500, Addr = 4355330, Dir = 2, Cmd = 2, Data = 456151
system.cpu.dcache.cpu_side::recvTimingReq: hasPC? 1, PC = 4546897, addr = 4052150, hasData? 0, NoData, Size = 4, time = 1731500, MemCmd: ReadReq, needsResponse? Y, addr = 4052150
setDataFromBlock:: PC = 4546897,  addr = 4052150, sameCmdDataDir? 1, size = 4, data = 0
system.cpu.dcache.cpu_side::sendTimingResp: hasPC? 1, PC = 4546897, hasContextId? 1, contextID = 0, Size = 4, time = 1731500, Addr = 4052150, Dir = 2, Cmd = 2, Data = 0
system.mem_ctrls::access() Cmd: ReadSharedReq, DataDir: 2, CmdDir: 2, Size: 64, addr: 3100600, PC: 4765082, time: 1715000
system.mem_ctrls::access() Cmd: ReadSharedReq, DataDir: 2, CmdDir: 2, Size: 64, addr: 4350150, PC: 4765096, time: 1715000
system.mem_ctrls::access() Cmd: ReadSharedReq, DataDir: 2, CmdDir: 2, Size: 64, addr: 4350160, PC: 4765108, time: 1716000
setDataFromBlock:: PC = 4765082,  addr = 3102600, sameCmdDataDir? 1, size = 8, data = 48b708
system.cpu.dcache.cpu_side::sendTimingResp: hasPC? 1, PC = 4765082, hasContextId? 1, contextID = 0, Size = 8, time = 1715000, Addr = 3102600, Dir = 2, Cmd = 2, Data = 48b708
system.cpu.dcache.cpu_side::recvTimingReq: hasPC? 1, PC = 4765448, addr = 4357150, hasData? 0, NoData, Size = 4, time = 1782500, MemCmd: ReadReq, needsResponse? Y, addr = 4357150
system.cpu.dcache.cpu_side::recvTimingReq: hasPC? 1, PC = 4765458, addr = 4357160, hasData? 0, NoData, Size = 8, time = 1783500, MemCmd: ReadReq, needsResponse? Y, addr = 4357160
system.cpu.dcache.cpu_side::recvTimingReq: hasPC? 1, PC = 4765480, addr = 4357170, hasData? 0, NoData, Size = 8, time = 1783500, MemCmd: ReadReq, needsResponse? Y, addr = 4357170
setDataFromBlock:: PC = 4765096,  addr = 4357150, sameCmdDataDir? 1, size = 8, data = 64
setDataFromBlock:: PC = 4765448,  addr = 4357150, sameCmdDataDir? 1, size = 4, data = 64
system.cpu.dcache.cpu_side::sendTimingResp: hasPC? 1, PC = 4765096, hasContextId? 1, contextID = 0, Size = 8, time = 1715000, Addr = 4357150, Dir = 2, Cmd = 2, Data = 64
system.cpu.dcache.cpu_side::sendTimingResp: hasPC? 1, PC = 4765448, hasContextId? 1, contextID = 0, Size = 4, time = 1782500, Addr = 4357150, Dir = 2, Cmd = 2, Data = 64
system.cpu.dcache.cpu_side::recvTimingReq: hasPC? 1, PC = 4765212, addr = 4355270, hasData? 0, NoData, Size = 8, time = 1792500, MemCmd: ReadReq, needsResponse? Y, addr = 4355270
setDataFromBlock:: PC = 4765212,  addr = 4355270, sameCmdDataDir? 1, size = 8, data = 456ae0
system.cpu.dcache.cpu_side::sendTimingResp: hasPC? 1, PC = 4765212, hasContextId? 1, contextID = 0, Size = 8, time = 1792500, Addr = 4355270, Dir = 2, Cmd = 2, Data = 456ae0
setDataFromBlock:: PC = 4765108,  addr = 4357160, sameCmdDataDir? 1, size = 8, data = c
setDataFromBlock:: PC = 4765458,  addr = 4357160, sameCmdDataDir? 1, size = 8, data = c
system.cpu.dcache.cpu_side::sendTimingResp: hasPC? 1, PC = 4765108, hasContextId? 1, contextID = 0, Size = 8, time = 1716000, Addr = 4357160, Dir = 2, Cmd = 2, Data = c
system.cpu.dcache.cpu_side::sendTimingResp: hasPC? 1, PC = 4765458, hasContextId? 1, contextID = 0, Size = 8, time = 1783500, Addr = 4357160, Dir = 2, Cmd = 2, Data = c
system.cpu.dcache.cpu_side::recvTimingReq: hasPC? 1, PC = 4765212, addr = 4355270, hasData? 0, NoData, Size = 8, time = 1797000, MemCmd: ReadReq, needsResponse? Y, addr = 4355270
setDataFromBlock:: PC = 4765212,  addr = 4355270, sameCmdDataDir? 1, size = 8, data = 456ae0
system.cpu.dcache.cpu_side::sendTimingResp: hasPC? 1, PC = 4765212, hasContextId? 1, contextID = 0, Size = 8, time = 1797000, Addr = 4355270, Dir = 2, Cmd = 2, Data = 456ae0
system.cpu.dcache.cpu_side::recvTimingReq: hasPC? 1, PC = 4765082, addr = 3102610, hasData? 0, NoData, Size = 8, time = 1807000, MemCmd: ReadReq, needsResponse? Y, addr = 3102610
system.cpu.dcache.cpu_side::recvTimingReq: hasPC? 1, PC = 4765096, addr = 4357170, hasData? 0, NoData, Size = 8, time = 1807000, MemCmd: ReadReq, needsResponse? Y, addr = 4357170
system.cpu.dcache.cpu_side::recvTimingReq: hasPC? 1, PC = 4765108, addr = 4357200, hasData? 0, NoData, Size = 8, time = 1808000, MemCmd: ReadReq, needsResponse? Y, addr = 4357200
system.cpu.dcache.cpu_side::recvTimingReq: hasPC? 1, PC = 4765212, addr = 4355270, hasData? 0, NoData, Size = 8, time = 1809000, MemCmd: ReadReq, needsResponse? Y, addr = 4355270
setDataFromBlock:: PC = 4765212,  addr = 4355270, sameCmdDataDir? 1, size = 8, data = 456ae0
system.cpu.dcache.cpu_side::recvTimingReq: hasPC? 1, PC = 4765213, addr = 4355300, hasData? 0, NoData, Size = 8, time = 1809500, MemCmd: ReadReq, needsResponse? Y, addr = 4355300
setDataFromBlock:: PC = 4765213,  addr = 4355300, sameCmdDataDir? 1, size = 8, data = 456aa0
system.cpu.dcache.cpu_side::sendTimingResp: hasPC? 1, PC = 4765212, hasContextId? 1, contextID = 0, Size = 8, time = 1809000, Addr = 4355270, Dir = 2, Cmd = 2, Data = 456ae0
system.cpu.dcache.cpu_side::recvTimingReq: hasPC? 1, PC = 4765214, addr = 4355310, hasData? 0, NoData, Size = 8, time = 1810000, MemCmd: ReadReq, needsResponse? Y, addr = 4355310
setDataFromBlock:: PC = 4765214,  addr = 4355310, sameCmdDataDir? 1, size = 8, data = 0
system.cpu.dcache.cpu_side::sendTimingResp: hasPC? 1, PC = 4765213, hasContextId? 1, contextID = 0, Size = 8, time = 1809500, Addr = 4355300, Dir = 2, Cmd = 2, Data = 456aa0
system.cpu.dcache.cpu_side::recvTimingReq: hasPC? 1, PC = 4765216, addr = 4355320, hasData? 0, NoData, Size = 8, time = 1810500, MemCmd: ReadReq, needsResponse? Y, addr = 4355320
setDataFromBlock:: PC = 4765216,  addr = 4355320, sameCmdDataDir? 1, size = 8, data = 0
system.cpu.dcache.cpu_side::sendTimingResp: hasPC? 1, PC = 4765214, hasContextId? 1, contextID = 0, Size = 8, time = 1810000, Addr = 4355310, Dir = 2, Cmd = 2, Data = 0
system.cpu.dcache.cpu_side::recvTimingReq: hasPC? 1, PC = 4765218, addr = 4355330, hasData? 0, NoData, Size = 8, time = 1811000, MemCmd: ReadReq, needsResponse? Y, addr = 4355330
setDataFromBlock:: PC = 4765218,  addr = 4355330, sameCmdDataDir? 1, size = 8, data = 456151
system.cpu.dcache.cpu_side::sendTimingResp: hasPC? 1, PC = 4765216, hasContextId? 1, contextID = 0, Size = 8, time = 1810500, Addr = 4355320, Dir = 2, Cmd = 2, Data = 0
system.cpu.dcache.cpu_side::sendTimingResp: hasPC? 1, PC = 4765218, hasContextId? 1, contextID = 0, Size = 8, time = 1811000, Addr = 4355330, Dir = 2, Cmd = 2, Data = 456151
system.mem_ctrls::access() Cmd: ReadSharedReq, DataDir: 2, CmdDir: 2, Size: 64, addr: 4350170, PC: 4765480, time: 1783500
system.cpu.dcache.cpu_side::recvTimingReq: hasPC? 1, PC = 4546897, addr = 4052150, hasData? 0, NoData, Size = 4, time = 1818000, MemCmd: ReadReq, needsResponse? Y, addr = 4052150
setDataFromBlock:: PC = 4546897,  addr = 4052150, sameCmdDataDir? 1, size = 4, data = 0
system.cpu.dcache.cpu_side::sendTimingResp: hasPC? 1, PC = 4546897, hasContextId? 1, contextID = 0, Size = 4, time = 1818000, Addr = 4052150, Dir = 2, Cmd = 2, Data = 0
system.mem_ctrls::access() Cmd: ReadSharedReq, DataDir: 2, CmdDir: 2, Size: 64, addr: 3100610, PC: 4765082, time: 1807000
setDataFromBlock:: PC = 4765480,  addr = 4357170, sameCmdDataDir? 1, size = 8, data = 64
setDataFromBlock:: PC = 4765096,  addr = 4357170, sameCmdDataDir? 1, size = 8, data = 64
system.mem_ctrls::access() Cmd: ReadSharedReq, DataDir: 2, CmdDir: 2, Size: 64, addr: 4350200, PC: 4765108, time: 1808000
system.cpu.dcache.cpu_side::sendTimingResp: hasPC? 1, PC = 4765480, hasContextId? 1, contextID = 0, Size = 8, time = 1783500, Addr = 4357170, Dir = 2, Cmd = 2, Data = 64
system.cpu.dcache.cpu_side::sendTimingResp: hasPC? 1, PC = 4765096, hasContextId? 1, contextID = 0, Size = 8, time = 1807000, Addr = 4357170, Dir = 2, Cmd = 2, Data = 64
setDataFromBlock:: PC = 4765082,  addr = 3102610, sameCmdDataDir? 1, size = 8, data = 48b6e8
system.cpu.dcache.cpu_side::sendTimingResp: hasPC? 1, PC = 4765082, hasContextId? 1, contextID = 0, Size = 8, time = 1807000, Addr = 3102610, Dir = 2, Cmd = 2, Data = 48b6e8
setDataFromBlock:: PC = 4765108,  addr = 4357200, sameCmdDataDir? 1, size = 8, data = d
system.cpu.dcache.cpu_side::sendTimingResp: hasPC? 1, PC = 4765108, hasContextId? 1, contextID = 0, Size = 8, time = 1808000, Addr = 4357200, Dir = 2, Cmd = 2, Data = d
system.cpu.dcache.cpu_side::recvTimingReq: hasPC? 1, PC = 4765416, addr = 4357170, hasData? 0, NoData, Size = 4, time = 1877500, MemCmd: ReadReq, needsResponse? Y, addr = 4357170
setDataFromBlock:: PC = 4765416,  addr = 4357170, sameCmdDataDir? 1, size = 4, data = 64
system.cpu.dcache.cpu_side::sendTimingResp: hasPC? 1, PC = 4765416, hasContextId? 1, contextID = 0, Size = 4, time = 1877500, Addr = 4357170, Dir = 2, Cmd = 2, Data = 64
system.cpu.dcache.cpu_side::recvTimingReq: hasPC? 1, PC = 4765426, addr = 4357200, hasData? 0, NoData, Size = 8, time = 1878500, MemCmd: ReadReq, needsResponse? Y, addr = 4357200
setDataFromBlock:: PC = 4765426,  addr = 4357200, sameCmdDataDir? 1, size = 8, data = d
system.cpu.dcache.cpu_side::recvTimingReq: hasPC? 1, PC = 4765448, addr = 4357210, hasData? 0, NoData, Size = 4, time = 1878500, MemCmd: ReadReq, needsResponse? Y, addr = 4357210
system.cpu.dcache.cpu_side::sendTimingResp: hasPC? 1, PC = 4765426, hasContextId? 1, contextID = 0, Size = 8, time = 1878500, Addr = 4357200, Dir = 2, Cmd = 2, Data = d
system.cpu.dcache.cpu_side::recvTimingReq: hasPC? 1, PC = 4765082, addr = 3102620, hasData? 0, NoData, Size = 8, time = 1890000, MemCmd: ReadReq, needsResponse? Y, addr = 3102620
system.cpu.dcache.cpu_side::recvTimingReq: hasPC? 1, PC = 4765096, addr = 4357210, hasData? 0, NoData, Size = 8, time = 1890000, MemCmd: ReadReq, needsResponse? Y, addr = 4357210
system.cpu.dcache.cpu_side::recvTimingReq: hasPC? 1, PC = 4765108, addr = 4357220, hasData? 0, NoData, Size = 8, time = 1891000, MemCmd: ReadReq, needsResponse? Y, addr = 4357220
system.cpu.dcache.cpu_side::recvTimingReq: hasPC? 1, PC = 4765212, addr = 4355270, hasData? 0, NoData, Size = 8, time = 1892000, MemCmd: ReadReq, needsResponse? Y, addr = 4355270
setDataFromBlock:: PC = 4765212,  addr = 4355270, sameCmdDataDir? 1, size = 8, data = 456ae0
system.cpu.dcache.cpu_side::recvTimingReq: hasPC? 1, PC = 4765213, addr = 4355300, hasData? 0, NoData, Size = 8, time = 1892500, MemCmd: ReadReq, needsResponse? Y, addr = 4355300
setDataFromBlock:: PC = 4765213,  addr = 4355300, sameCmdDataDir? 1, size = 8, data = 456aa0
system.cpu.dcache.cpu_side::sendTimingResp: hasPC? 1, PC = 4765212, hasContextId? 1, contextID = 0, Size = 8, time = 1892000, Addr = 4355270, Dir = 2, Cmd = 2, Data = 456ae0
system.cpu.dcache.cpu_side::recvTimingReq: hasPC? 1, PC = 4765214, addr = 4355310, hasData? 0, NoData, Size = 8, time = 1893000, MemCmd: ReadReq, needsResponse? Y, addr = 4355310
setDataFromBlock:: PC = 4765214,  addr = 4355310, sameCmdDataDir? 1, size = 8, data = 0
system.cpu.dcache.cpu_side::sendTimingResp: hasPC? 1, PC = 4765213, hasContextId? 1, contextID = 0, Size = 8, time = 1892500, Addr = 4355300, Dir = 2, Cmd = 2, Data = 456aa0
system.cpu.dcache.cpu_side::recvTimingReq: hasPC? 1, PC = 4765216, addr = 4355320, hasData? 0, NoData, Size = 8, time = 1893500, MemCmd: ReadReq, needsResponse? Y, addr = 4355320
setDataFromBlock:: PC = 4765216,  addr = 4355320, sameCmdDataDir? 1, size = 8, data = 0
system.cpu.dcache.cpu_side::sendTimingResp: hasPC? 1, PC = 4765214, hasContextId? 1, contextID = 0, Size = 8, time = 1893000, Addr = 4355310, Dir = 2, Cmd = 2, Data = 0
system.cpu.dcache.cpu_side::recvTimingReq: hasPC? 1, PC = 4765218, addr = 4355330, hasData? 0, NoData, Size = 8, time = 1894000, MemCmd: ReadReq, needsResponse? Y, addr = 4355330
setDataFromBlock:: PC = 4765218,  addr = 4355330, sameCmdDataDir? 1, size = 8, data = 456151
system.cpu.dcache.cpu_side::sendTimingResp: hasPC? 1, PC = 4765216, hasContextId? 1, contextID = 0, Size = 8, time = 1893500, Addr = 4355320, Dir = 2, Cmd = 2, Data = 0
system.cpu.dcache.cpu_side::sendTimingResp: hasPC? 1, PC = 4765218, hasContextId? 1, contextID = 0, Size = 8, time = 1894000, Addr = 4355330, Dir = 2, Cmd = 2, Data = 456151
system.cpu.dcache.cpu_side::recvTimingReq: hasPC? 1, PC = 4546897, addr = 4052150, hasData? 0, NoData, Size = 4, time = 1901000, MemCmd: ReadReq, needsResponse? Y, addr = 4052150
setDataFromBlock:: PC = 4546897,  addr = 4052150, sameCmdDataDir? 1, size = 4, data = 0
system.cpu.dcache.cpu_side::sendTimingResp: hasPC? 1, PC = 4546897, hasContextId? 1, contextID = 0, Size = 4, time = 1901000, Addr = 4052150, Dir = 2, Cmd = 2, Data = 0
system.mem_ctrls::access() Cmd: ReadSharedReq, DataDir: 2, CmdDir: 2, Size: 64, addr: 4350210, PC: 4765448, time: 1878500
system.mem_ctrls::access() Cmd: ReadSharedReq, DataDir: 2, CmdDir: 2, Size: 64, addr: 3100620, PC: 4765082, time: 1890000
system.mem_ctrls::access() Cmd: ReadSharedReq, DataDir: 2, CmdDir: 2, Size: 64, addr: 4350220, PC: 4765108, time: 1891000
setDataFromBlock:: PC = 4765448,  addr = 4357210, sameCmdDataDir? 1, size = 4, data = 64
setDataFromBlock:: PC = 4765096,  addr = 4357210, sameCmdDataDir? 1, size = 8, data = 64
system.cpu.dcache.cpu_side::sendTimingResp: hasPC? 1, PC = 4765448, hasContextId? 1, contextID = 0, Size = 4, time = 1878500, Addr = 4357210, Dir = 2, Cmd = 2, Data = 64
system.cpu.dcache.cpu_side::sendTimingResp: hasPC? 1, PC = 4765096, hasContextId? 1, contextID = 0, Size = 8, time = 1890000, Addr = 4357210, Dir = 2, Cmd = 2, Data = 64
setDataFromBlock:: PC = 4765082,  addr = 3102620, sameCmdDataDir? 1, size = 8, data = 48b6c8
system.cpu.dcache.cpu_side::sendTimingResp: hasPC? 1, PC = 4765082, hasContextId? 1, contextID = 0, Size = 8, time = 1890000, Addr = 3102620, Dir = 2, Cmd = 2, Data = 48b6c8
system.cpu.dcache.cpu_side::recvTimingReq: hasPC? 1, PC = 4765384, addr = 4357210, hasData? 0, NoData, Size = 4, time = 1969500, MemCmd: ReadReq, needsResponse? Y, addr = 4357210
setDataFromBlock:: PC = 4765384,  addr = 4357210, sameCmdDataDir? 1, size = 4, data = 64
system.cpu.dcache.cpu_side::sendTimingResp: hasPC? 1, PC = 4765384, hasContextId? 1, contextID = 0, Size = 4, time = 1969500, Addr = 4357210, Dir = 2, Cmd = 2, Data = 64
system.cpu.dcache.cpu_side::recvTimingReq: hasPC? 1, PC = 4765394, addr = 4357220, hasData? 0, NoData, Size = 8, time = 1970500, MemCmd: ReadReq, needsResponse? Y, addr = 4357220
system.cpu.dcache.cpu_side::recvTimingReq: hasPC? 1, PC = 4765416, addr = 4357230, hasData? 0, NoData, Size = 4, time = 1970500, MemCmd: ReadReq, needsResponse? Y, addr = 4357230
setDataFromBlock:: PC = 4765108,  addr = 4357220, sameCmdDataDir? 1, size = 8, data = e
setDataFromBlock:: PC = 4765394,  addr = 4357220, sameCmdDataDir? 1, size = 8, data = e
system.cpu.dcache.cpu_side::sendTimingResp: hasPC? 1, PC = 4765108, hasContextId? 1, contextID = 0, Size = 8, time = 1891000, Addr = 4357220, Dir = 2, Cmd = 2, Data = e
system.cpu.dcache.cpu_side::sendTimingResp: hasPC? 1, PC = 4765394, hasContextId? 1, contextID = 0, Size = 8, time = 1970500, Addr = 4357220, Dir = 2, Cmd = 2, Data = e
system.cpu.dcache.cpu_side::recvTimingReq: hasPC? 1, PC = 4765082, addr = 3102630, hasData? 0, NoData, Size = 8, time = 1981500, MemCmd: ReadReq, needsResponse? Y, addr = 3102630
system.cpu.dcache.cpu_side::recvTimingReq: hasPC? 1, PC = 4765096, addr = 4357230, hasData? 0, NoData, Size = 8, time = 1981500, MemCmd: ReadReq, needsResponse? Y, addr = 4357230
system.cpu.dcache.cpu_side::recvTimingReq: hasPC? 1, PC = 4765108, addr = 4357240, hasData? 0, NoData, Size = 8, time = 1982500, MemCmd: ReadReq, needsResponse? Y, addr = 4357240
[...]
system.cpu.dcache.cpu_side::recvTimingReq: hasPC? 1, PC = 4547202, addr = 4356510, hasData? 0, NoData, Size = 8, time = 4635000, MemCmd: ReadReq, needsResponse? Y, addr = 4356510
setDataFromBlock:: PC = 4547202,  addr = 4356510, sameCmdDataDir? 1, size = 8, data = ff0a000000000000
system.cpu.dcache.cpu_side::sendTimingResp: hasPC? 1, PC = 4547202, hasContextId? 1, contextID = 0, Size = 8, time = 4635000, Addr = 4356510, Dir = 2, Cmd = 2, Data = ff0a000000000000
system.cpu.dcache.cpu_side::recvTimingReq: hasPC? 1, PC = 4547213, addr = 4356510, hasData? 1, Data = 35ec000001e4200, Size = 8, time = 4637500, MemCmd: WriteReq, needsResponse? Y, addr = 4356510
writeDataToBlock:: PC = 4547213,  addr = 4356510, sameCmdDataDir? 1, size = 8, data = 35ec000001e4200
system.cpu.dcache.cpu_side::sendTimingResp: hasPC? 1, PC = 4547213, hasContextId? 1, contextID = 0, Size = 8, time = 4637500, Addr = 4356510, Dir = 2, Cmd = 5, noData
system.cpu.dcache.cpu_side::recvTimingReq: hasPC? 1, PC = 4547221, addr = 4374210, hasData? 1, Data = 35ec000001e4200, Size = 8, time = 4637500, MemCmd: WriteReq, needsResponse? Y, addr = 4374210
system.cpu.dcache.cpu_side::recvTimingReq: hasPC? 1, PC = 4547254, addr = 4355360, hasData? 0, NoData, Size = 8, time = 4653500, MemCmd: ReadReq, needsResponse? Y, addr = 4355360
setDataFromBlock:: PC = 4547254,  addr = 4355360, sameCmdDataDir? 1, size = 8, data = 7fffffffeda8
system.cpu.dcache.cpu_side::recvTimingReq: hasPC? 1, PC = 4547259, addr = 4355354, hasData? 0, NoData, Size = 4, time = 4653500, MemCmd: ReadReq, needsResponse? Y, addr = 4355354
setDataFromBlock:: PC = 4547259,  addr = 4355354, sameCmdDataDir? 1, size = 4, data = 1
system.cpu.dcache.cpu_side::recvTimingReq: hasPC? 1, PC = 4547247, addr = 4336310, hasData? 0, NoData, Size = 8, time = 4654000, MemCmd: ReadReq, needsResponse? Y, addr = 4336310
setDataFromBlock:: PC = 4547247,  addr = 4336310, sameCmdDataDir? 1, size = 8, data = 7fffffffedb8
system.cpu.dcache.cpu_side::sendTimingResp: hasPC? 1, PC = 4547254, hasContextId? 1, contextID = 0, Size = 8, time = 4653500, Addr = 4355360, Dir = 2, Cmd = 2, Data = 7fffffffeda8
system.cpu.dcache.cpu_side::sendTimingResp: hasPC? 1, PC = 4547259, hasContextId? 1, contextID = 0, Size = 4, time = 4653500, Addr = 4355354, Dir = 2, Cmd = 2, Data = 1
system.cpu.dcache.cpu_side::sendTimingResp: hasPC? 1, PC = 4547247, hasContextId? 1, contextID = 0, Size = 8, time = 4654000, Addr = 4336310, Dir = 2, Cmd = 2, Data = 7fffffffedb8
system.mem_ctrls::access() Cmd: ReadExReq, DataDir: 2, CmdDir: 2, Size: 64, addr: 4370210, PC: 4547221, time: 4637500
writeDataToBlock:: PC = 4547221,  addr = 4374210, sameCmdDataDir? 1, size = 8, data = 35ec000001e4200
system.cpu.dcache.cpu_side::sendTimingResp: hasPC? 1, PC = 4547221, hasContextId? 1, contextID = 0, Size = 8, time = 4637500, Addr = 4374210, Dir = 2, Cmd = 5, noData
system.cpu.dcache.cpu_side::recvTimingReq: hasPC? 1, PC = 4547263, addr = 4355330, hasData? 1, Data = 4562c4, Size = 8, time = 4655000, MemCmd: WriteReq, needsResponse? Y, addr = 4355330
writeDataToBlock:: PC = 4547263,  addr = 4355330, sameCmdDataDir? 1, size = 8, data = 4562c4
system.cpu.dcache.cpu_side::sendTimingResp: hasPC? 1, PC = 4547263, hasContextId? 1, contextID = 0, Size = 8, time = 4655000, Addr = 4355330, Dir = 2, Cmd = 5, noData
system.cpu.dcache.cpu_side::recvTimingReq: hasPC? 1, PC = 4768021, addr = 4355300, hasData? 1, Data = 456ae0, Size = 8, time = 4757500, MemCmd: WriteReq, needsResponse? Y, addr = 4355300
writeDataToBlock:: PC = 4768021,  addr = 4355300, sameCmdDataDir? 1, size = 8, data = 456ae0
system.cpu.dcache.cpu_side::sendTimingResp: hasPC? 1, PC = 4768021, hasContextId? 1, contextID = 0, Size = 8, time = 4757500, Addr = 4355300, Dir = 2, Cmd = 5, noData
system.cpu.dcache.cpu_side::recvTimingReq: hasPC? 1, PC = 4768026, addr = 4355310, hasData? 1, Data = 456aa0, Size = 8, time = 4757500, MemCmd: WriteReq, needsResponse? Y, addr = 4355310
writeDataToBlock:: PC = 4768026,  addr = 4355310, sameCmdDataDir? 1, size = 8, data = 456aa0
system.cpu.dcache.cpu_side::sendTimingResp: hasPC? 1, PC = 4768026, hasContextId? 1, contextID = 0, Size = 8, time = 4757500, Addr = 4355310, Dir = 2, Cmd = 5, noData
system.cpu.dcache.cpu_side::recvTimingReq: hasPC? 1, PC = 4768031, addr = 4355320, hasData? 1, Data = 0, Size = 8, time = 4757500, MemCmd: WriteReq, needsResponse? Y, addr = 4355320
writeDataToBlock:: PC = 4768031,  addr = 4355320, sameCmdDataDir? 1, size = 8, data = 0
system.cpu.dcache.cpu_side::sendTimingResp: hasPC? 1, PC = 4768031, hasContextId? 1, contextID = 0, Size = 8, time = 4757500, Addr = 4355320, Dir = 2, Cmd = 5, noData
system.cpu.dcache.cpu_side::recvTimingReq: hasPC? 1, PC = 4768063, addr = 4053440, hasData? 0, NoData, Size = 2, time = 4816500, MemCmd: ReadReq, needsResponse? Y, addr = 4053440
system.mem_ctrls::access() Cmd: ReadSharedReq, DataDir: 2, CmdDir: 2, Size: 64, addr: 4050440, PC: 4768063, time: 4816500
setDataFromBlock:: PC = 4768063,  addr = 4053440, sameCmdDataDir? 1, size = 2, data = 37f
system.cpu.dcache.cpu_side::sendTimingResp: hasPC? 1, PC = 4768063, hasContextId? 1, contextID = 0, Size = 2, time = 4816500, Addr = 4053440, Dir = 2, Cmd = 2, Data = 37f
system.cpu.dcache.cpu_side::recvTimingReq: hasPC? 1, PC = 4768070, addr = 4052150, hasData? 1, Data = 0, Size = 4, time = 4816500, MemCmd: WriteReq, needsResponse? Y, addr = 4052150
writeDataToBlock:: PC = 4768070,  addr = 4052150, sameCmdDataDir? 1, size = 4, data = 0
system.cpu.dcache.cpu_side::sendTimingResp: hasPC? 1, PC = 4768070, hasContextId? 1, contextID = 0, Size = 4, time = 4816500, Addr = 4052150, Dir = 2, Cmd = 5, noData
system.cpu.dcache.cpu_side::recvTimingReq: hasPC? 1, PC = 4768080, addr = 4355270, hasData? 1, Data = 48c155, Size = 8, time = 4816500, MemCmd: WriteReq, needsResponse? Y, addr = 4355270
writeDataToBlock:: PC = 4768080,  addr = 4355270, sameCmdDataDir? 1, size = 8, data = 48c155
system.cpu.dcache.cpu_side::sendTimingResp: hasPC? 1, PC = 4768080, hasContextId? 1, contextID = 0, Size = 8, time = 4816500, Addr = 4355270, Dir = 2, Cmd = 5, noData
system.cpu.dcache.cpu_side::recvTimingReq: hasPC? 1, PC = 4804928, addr = 4355266, hasData? 1, Data = 0, Size = 2, time = 4893000, MemCmd: WriteReq, needsResponse? Y, addr = 4355266
writeDataToBlock:: PC = 4804928,  addr = 4355266, sameCmdDataDir? 1, size = 2, data = 0
system.cpu.dcache.cpu_side::sendTimingResp: hasPC? 1, PC = 4804928, hasContextId? 1, contextID = 0, Size = 2, time = 4893000, Addr = 4355266, Dir = 2, Cmd = 5, noData
system.cpu.dcache.cpu_side::recvTimingReq: hasPC? 1, PC = 4804948, addr = 4355266, hasData? 1, Data = 33f, Size = 2, time = 4896000, MemCmd: WriteReq, needsResponse? Y, addr = 4355266
writeDataToBlock:: PC = 4804948,  addr = 4355266, sameCmdDataDir? 1, size = 2, data = 33f
system.cpu.dcache.cpu_side::sendTimingResp: hasPC? 1, PC = 4804948, hasContextId? 1, contextID = 0, Size = 2, time = 4896000, Addr = 4355266, Dir = 2, Cmd = 5, noData
system.cpu.dcache.cpu_side::recvTimingReq: hasPC? 1, PC = 4804953, addr = 4355266, hasData? 0, NoData, Size = 2, time = 4900000, MemCmd: ReadReq, needsResponse? Y, addr = 4355266
setDataFromBlock:: PC = 4804953,  addr = 4355266, sameCmdDataDir? 1, size = 2, data = 33f
system.cpu.dcache.cpu_side::sendTimingResp: hasPC? 1, PC = 4804953, hasContextId? 1, contextID = 0, Size = 2, time = 4900000, Addr = 4355266, Dir = 2, Cmd = 2, Data = 33f
system.cpu.dcache.cpu_side::recvTimingReq: hasPC? 1, PC = 4804957, addr = 4355270, hasData? 0, NoData, Size = 8, time = 4907000, MemCmd: ReadReq, needsResponse? Y, addr = 4355270
setDataFromBlock:: PC = 4804957,  addr = 4355270, sameCmdDataDir? 1, size = 8, data = 48c155
system.cpu.dcache.cpu_side::sendTimingResp: hasPC? 1, PC = 4804957, hasContextId? 1, contextID = 0, Size = 8, time = 4907000, Addr = 4355270, Dir = 2, Cmd = 2, Data = 48c155
system.cpu.dcache.cpu_side::recvTimingReq: hasPC? 1, PC = 4768085, addr = 4345770, hasData? 1, Data = 1, Size = 4, time = 4914000, MemCmd: WriteReq, needsResponse? Y, addr = 4345770
system.mem_ctrls::access() Cmd: ReadExReq, DataDir: 2, CmdDir: 2, Size: 64, addr: 4340770, PC: 4768085, time: 4914000
system.cpu.dcache.cpu_side::recvTimingReq: hasPC? 1, PC = 4767856, addr = 4345760, hasData? 0, NoData, Size = 4, time = 4980000, MemCmd: ReadReq, needsResponse? Y, addr = 4345760
setDataFromBlock:: PC = 4767856,  addr = 4345760, sameCmdDataDir? 1, size = 4, data = 1
system.cpu.dcache.cpu_side::sendTimingResp: hasPC? 1, PC = 4767856, hasContextId? 1, contextID = 0, Size = 4, time = 4980000, Addr = 4345760, Dir = 2, Cmd = 2, Data = 1
system.cpu.dcache.cpu_side::recvTimingReq: hasPC? 1, PC = 4768123, addr = 4355300, hasData? 0, NoData, Size = 8, time = 4987000, MemCmd: ReadReq, needsResponse? Y, addr = 4355300
setDataFromBlock:: PC = 4768123,  addr = 4355300, sameCmdDataDir? 1, size = 8, data = 456ae0
system.cpu.dcache.cpu_side::sendTimingResp: hasPC? 1, PC = 4768123, hasContextId? 1, contextID = 0, Size = 8, time = 4987000, Addr = 4355300, Dir = 2, Cmd = 2, Data = 456ae0
writeDataToBlock:: PC = 4768085,  addr = 4345770, sameCmdDataDir? 1, size = 4, data = 1
system.cpu.dcache.cpu_side::sendTimingResp: hasPC? 1, PC = 4768085, hasContextId? 1, contextID = 0, Size = 4, time = 4914000, Addr = 4345770, Dir = 2, Cmd = 5, noData
system.cpu.dcache.cpu_side::recvTimingReq: hasPC? 1, PC = 4768091, addr = 4346000, hasData? 1, Data = 7fffffffeda8, Size = 8, time = 4914500, MemCmd: WriteReq, needsResponse? Y, addr = 4346000
writeDataToBlock:: PC = 4768091,  addr = 4346000, sameCmdDataDir? 1, size = 8, data = 7fffffffeda8
system.cpu.dcache.cpu_side::sendTimingResp: hasPC? 1, PC = 4768091, hasContextId? 1, contextID = 0, Size = 8, time = 4914500, Addr = 4346000, Dir = 2, Cmd = 5, noData
system.cpu.dcache.cpu_side::recvTimingReq: hasPC? 1, PC = 4768098, addr = 4336310, hasData? 1, Data = 7fffffffedb8, Size = 8, time = 4914000, MemCmd: WriteReq, needsResponse? Y, addr = 4336310
writeDataToBlock:: PC = 4768098,  addr = 4336310, sameCmdDataDir? 1, size = 8, data = 7fffffffedb8
system.cpu.dcache.cpu_side::sendTimingResp: hasPC? 1, PC = 4768098, hasContextId? 1, contextID = 0, Size = 8, time = 4914000, Addr = 4336310, Dir = 2, Cmd = 5, noData
system.cpu.dcache.cpu_side::recvTimingReq: hasPC? 1, PC = 4768105, addr = 4355270, hasData? 1, Data = 48c16e, Size = 8, time = 4914000, MemCmd: WriteReq, needsResponse? Y, addr = 4355270
writeDataToBlock:: PC = 4768105,  addr = 4355270, sameCmdDataDir? 1, size = 8, data = 48c16e
system.cpu.dcache.cpu_side::sendTimingResp: hasPC? 1, PC = 4768105, hasContextId? 1, contextID = 0, Size = 8, time = 4914000, Addr = 4355270, Dir = 2, Cmd = 5, noData
system.cpu.dcache.cpu_side::recvTimingReq: hasPC? 1, PC = 4767862, addr = 4355260, hasData? 1, Data = 1, Size = 8, time = 4979500, MemCmd: WriteReq, needsResponse? Y, addr = 4355260
writeDataToBlock:: PC = 4767862,  addr = 4355260, sameCmdDataDir? 1, size = 8, data = 1
system.cpu.dcache.cpu_side::sendTimingResp: hasPC? 1, PC = 4767862, hasContextId? 1, contextID = 0, Size = 8, time = 4979500, Addr = 4355260, Dir = 2, Cmd = 5, noData
system.cpu.dcache.cpu_side::recvTimingReq: hasPC? 1, PC = 4768110, addr = 4355270, hasData? 1, Data = 48c173, Size = 8, time = 4987000, MemCmd: WriteReq, needsResponse? Y, addr = 4355270
writeDataToBlock:: PC = 4768110,  addr = 4355270, sameCmdDataDir? 1, size = 8, data = 48c173
system.cpu.dcache.cpu_side::sendTimingResp: hasPC? 1, PC = 4768110, hasContextId? 1, contextID = 0, Size = 8, time = 4987000, Addr = 4355270, Dir = 2, Cmd = 5, noData
system.cpu.dcache.cpu_side::recvTimingReq: hasPC? 1, PC = 4765621, addr = 4345360, hasData? 0, NoData, Size = 8, time = 4994000, MemCmd: ReadReq, needsResponse? Y, addr = 4345360
setDataFromBlock:: PC = 4765621,  addr = 4345360, sameCmdDataDir? 1, size = 8, data = 1000
system.cpu.dcache.cpu_side::recvTimingReq: hasPC? 1, PC = 4765600, addr = 4355260, hasData? 1, Data = 7fffffffeb00, Size = 8, time = 4992000, MemCmd: WriteReq, needsResponse? Y, addr = 4355260
writeDataToBlock:: PC = 4765600,  addr = 4355260, sameCmdDataDir? 1, size = 8, data = 7fffffffeb00
system.cpu.dcache.cpu_side::sendTimingResp: hasPC? 1, PC = 4765621, hasContextId? 1, contextID = 0, Size = 8, time = 4994000, Addr = 4345360, Dir = 2, Cmd = 2, Data = 1000
system.cpu.dcache.cpu_side::sendTimingResp: hasPC? 1, PC = 4765600, hasContextId? 1, contextID = 0, Size = 8, time = 4992000, Addr = 4355260, Dir = 2, Cmd = 5, noData
system.cpu.dcache.cpu_side::recvTimingReq: hasPC? 1, PC = 4765602, addr = 4355250, hasData? 1, Data = 7fffffffedb8, Size = 8, time = 4992500, MemCmd: WriteReq, needsResponse? Y, addr = 4355250
writeDataToBlock:: PC = 4765602,  addr = 4355250, sameCmdDataDir? 1, size = 8, data = 7fffffffedb8
system.cpu.dcache.cpu_side::sendTimingResp: hasPC? 1, PC = 4765602, hasContextId? 1, contextID = 0, Size = 8, time = 4992500, Addr = 4355250, Dir = 2, Cmd = 5, noData
system.cpu.dcache.cpu_side::recvTimingReq: hasPC? 1, PC = 4765604, addr = 4355240, hasData? 1, Data = 7fffffffeda8, Size = 8, time = 4993000, MemCmd: WriteReq, needsResponse? Y, addr = 4355240
writeDataToBlock:: PC = 4765604,  addr = 4355240, sameCmdDataDir? 1, size = 8, data = 7fffffffeda8
system.cpu.dcache.cpu_side::sendTimingResp: hasPC? 1, PC = 4765604, hasContextId? 1, contextID = 0, Size = 8, time = 4993000, Addr = 4355240, Dir = 2, Cmd = 5, noData
system.cpu.dcache.cpu_side::recvTimingReq: hasPC? 1, PC = 4765605, addr = 4355230, hasData? 1, Data = 1, Size = 8, time = 4993500, MemCmd: WriteReq, needsResponse? Y, addr = 4355230
writeDataToBlock:: PC = 4765605,  addr = 4355230, sameCmdDataDir? 1, size = 8, data = 1
system.cpu.dcache.cpu_side::sendTimingResp: hasPC? 1, PC = 4765605, hasContextId? 1, contextID = 0, Size = 8, time = 4993500, Addr = 4355230, Dir = 2, Cmd = 5, noData
system.cpu.dcache.cpu_side::recvTimingReq: hasPC? 1, PC = 4765629, addr = 4345340, hasData? 1, Data = 2702, Size = 8, time = 5051000, MemCmd: WriteReq, needsResponse? Y, addr = 4345340
system.mem_ctrls::access() Cmd: ReadExReq, DataDir: 2, CmdDir: 2, Size: 64, addr: 4340340, PC: 4765629, time: 5051000
writeDataToBlock:: PC = 4765629,  addr = 4345340, sameCmdDataDir? 1, size = 8, data = 2702
system.cpu.dcache.cpu_side::sendTimingResp: hasPC? 1, PC = 4765629, hasContextId? 1, contextID = 0, Size = 8, time = 5051000, Addr = 4345340, Dir = 2, Cmd = 5, noData
system.cpu.dcache.cpu_side::recvTimingReq: hasPC? 1, PC = 4765662, addr = 4355170, hasData? 1, Data = 48b7e3, Size = 8, time = 5057500, MemCmd: WriteReq, needsResponse? Y, addr = 4355170
writeDataToBlock:: PC = 4765662,  addr = 4355170, sameCmdDataDir? 1, size = 8, data = 48b7e3
system.cpu.dcache.cpu_side::sendTimingResp: hasPC? 1, PC = 4765662, hasContextId? 1, contextID = 0, Size = 8, time = 5057500, Addr = 4355170, Dir = 2, Cmd = 5, noData
system.cpu.dcache.cpu_side::recvTimingReq: hasPC? 1, PC = 4583648, addr = 4355110, hasData? 1, Data = 4d4f4a, Size = 8, time = 5158500, MemCmd: WriteReq, needsResponse? Y, addr = 4355110
writeDataToBlock:: PC = 4583648,  addr = 4355110, sameCmdDataDir? 1, size = 8, data = 4d4f4a
system.cpu.dcache.cpu_side::sendTimingResp: hasPC? 1, PC = 4583648, hasContextId? 1, contextID = 0, Size = 8, time = 5158500, Addr = 4355110, Dir = 2, Cmd = 5, noData
system.cpu.dcache.cpu_side::recvTimingReq: hasPC? 1, PC = 4583653, addr = 4355130, hasData? 1, Data = 7fffffffedb8, Size = 8, time = 5158500, MemCmd: WriteReq, needsResponse? Y, addr = 4355130
writeDataToBlock:: PC = 4583653,  addr = 4355130, sameCmdDataDir? 1, size = 8, data = 7fffffffedb8
system.cpu.dcache.cpu_side::sendTimingResp: hasPC? 1, PC = 4583653, hasContextId? 1, contextID = 0, Size = 8, time = 5158500, Addr = 4355130, Dir = 2, Cmd = 5, noData
system.cpu.dcache.cpu_side::recvTimingReq: hasPC? 1, PC = 4583658, addr = 4355160, hasData? 1, Data = 0, Size = 8, time = 5158500, MemCmd: WriteReq, needsResponse? Y, addr = 4355160
writeDataToBlock:: PC = 4583658,  addr = 4355160, sameCmdDataDir? 1, size = 8, data = 0
system.cpu.dcache.cpu_side::sendTimingResp: hasPC? 1, PC = 4583658, hasContextId? 1, contextID = 0, Size = 8, time = 5158500, Addr = 4355160, Dir = 2, Cmd = 5, noData
system.cpu.dcache.cpu_side::recvTimingReq: hasPC? 1, PC = 4583663, addr = 4355120, hasData? 1, Data = 7fffffffeda8, Size = 8, time = 5158500, MemCmd: WriteReq, needsResponse? Y, addr = 4355120
writeDataToBlock:: PC = 4583663,  addr = 4355120, sameCmdDataDir? 1, size = 8, data = 7fffffffeda8
system.cpu.dcache.cpu_side::sendTimingResp: hasPC? 1, PC = 4583663, hasContextId? 1, contextID = 0, Size = 8, time = 5158500, Addr = 4355120, Dir = 2, Cmd = 5, noData
system.cpu.dcache.cpu_side::recvTimingReq: hasPC? 1, PC = 4583671, addr = 4355140, hasData? 1, Data = 7fffffffeb00, Size = 8, time = 5159000, MemCmd: WriteReq, needsResponse? Y, addr = 4355140
writeDataToBlock:: PC = 4583671,  addr = 4355140, sameCmdDataDir? 1, size = 8, data = 7fffffffeb00
system.cpu.dcache.cpu_side::sendTimingResp: hasPC? 1, PC = 4583671, hasContextId? 1, contextID = 0, Size = 8, time = 5159000, Addr = 4355140, Dir = 2, Cmd = 5, noData
system.cpu.dcache.cpu_side::recvTimingReq: hasPC? 1, PC = 4583690, addr = 4336310, hasData? 0, NoData, Size = 8, time = 5216500, MemCmd: ReadReq, needsResponse? Y, addr = 4336310
setDataFromBlock:: PC = 4583690,  addr = 4336310, sameCmdDataDir? 1, size = 8, data = 7fffffffedb8
system.cpu.dcache.cpu_side::sendTimingResp: hasPC? 1, PC = 4583690, hasContextId? 1, contextID = 0, Size = 8, time = 5216500, Addr = 4336310, Dir = 2, Cmd = 2, Data = 7fffffffedb8
system.cpu.dcache.cpu_side::recvTimingReq: hasPC? 1, PC = 4583676, addr = 4355150, hasData? 1, Data = 7fffffffeb86, Size = 8, time = 5215500, MemCmd: WriteReq, needsResponse? Y, addr = 4355150
writeDataToBlock:: PC = 4583676,  addr = 4355150, sameCmdDataDir? 1, size = 8, data = 7fffffffeb86
system.cpu.dcache.cpu_side::sendTimingResp: hasPC? 1, PC = 4583676, hasContextId? 1, contextID = 0, Size = 8, time = 5215500, Addr = 4355150, Dir = 2, Cmd = 5, noData
system.cpu.dcache.cpu_side::recvTimingReq: hasPC? 1, PC = 4583685, addr = 4355070, hasData? 1, Data = 45f10a, Size = 8, time = 5216500, MemCmd: WriteReq, needsResponse? Y, addr = 4355070
writeDataToBlock:: PC = 4583685,  addr = 4355070, sameCmdDataDir? 1, size = 8, data = 45f10a
system.cpu.dcache.cpu_side::sendTimingResp: hasPC? 1, PC = 4583685, hasContextId? 1, contextID = 0, Size = 8, time = 5216500, Addr = 4355070, Dir = 2, Cmd = 5, noData
system.cpu.dcache.cpu_side::recvTimingReq: hasPC? 1, PC = 4699984, addr = 3103545, hasData? 0, NoData, Size = 1, time = 5306500, MemCmd: ReadReq, needsResponse? Y, addr = 3103545
setDataFromBlock:: PC = 4699984,  addr = 3103545, sameCmdDataDir? 1, size = 1, data = 4c
system.cpu.dcache.cpu_side::sendTimingResp: hasPC? 1, PC = 4699984, hasContextId? 1, contextID = 0, Size = 1, time = 5306500, Addr = 3103545, Dir = 2, Cmd = 2, Data = 4c
system.cpu.dcache.cpu_side::recvTimingReq: hasPC? 1, PC = 4700016, addr = 3103546, hasData? 0, NoData, Size = 8, time = 5309000, MemCmd: ReadReq, needsResponse? YMJL_Split: splitting one packet into 2, New Packet created, New Request size set, New Packet address set, New Packet created, , addr = 3103546
setDataFromBlock:: PC = 4700016,  addr = 3103546, sameCmdDataDir? 1, size = 8, data = 2f2f345343555f44
setDataFromBlock:: PC = 4700016,  addr = 3103550, sameCmdDataDir? 1, size = 6, data = 4c004e524157
system.cpu.dcache.cpu_side::sendTimingResp: hasPC? 1, PC = 4700016, hasContextId? 1, contextID = 0, Size = 8, time = 5309000, Addr = 3103546, Dir = 2, Cmd = 2, Data = 2f2f345343555f44
MJL_Merge: received a packet that was split into 2,  this is the first packet
system.cpu.dcache.cpu_side::sendTimingResp: hasPC? 1, PC = 4700016, hasContextId? 1, contextID = 0, Size = 6, time = 5309000, Addr = 3103550, Dir = 2, Cmd = 2, Data = 4c004e524157
MJL_Merge: received a packet that was split into 2,  this is the second packet
