gem5 Simulator System.  http://gem5.org
gem5 is copyrighted software; use the --copyright option for details.

gem5 compiled Apr 20 2017 21:00:12
gem5 started Apr 20 2017 21:27:28
gem5 executing on shai.cse.psu.edu, pid 46746
command line: /home/mdl/mjl5868/GEM5/Mem2D/New_Version/2dmem_v0_1_addaddrbit/V0_1_AddAddrBit/gem5/build/X86/gem5.opt --redirect-stdout --stdout-file=build_test_Apr20_2017.gemout --redirect-stderr --stderr-file=build_test_Apr20_2017.gemerr --stats-file=build_test_Apr20_2017.stat /home/mdl/mjl5868/GEM5/Mem2D/New_Version/2dmem_v0_1_addaddrbit/V0_1_AddAddrBit/gem5/configs/example/se.py --output=build_test_Apr20_2017.appout --errout=build_test_Apr20_2017.apperr -c /home/mdl/mjl5868/GEM5/Mem2D/New_Version/2dmem_v0_1_addaddrbit/V0_1_AddAddrBit/Run_test_pbs/Vector_test/testscl-bin --caches --l2cache --cpu-type=detailed --MJL_row_width=8 --MJL_PC2DirFile=test.txt

Global frequency set at 1000000000000 ticks per second
system.cpu.dcache.tags::MJL_rowWidth = 8
system.cpu.dcache::MJL_rowWidth = 8
system.cpu.dcache::MJL_PC2DirFilname = test.txt
MJL_Error: Could not open test input file!
After reading the file
system.cpu.dtb_walker_cache.tags::MJL_rowWidth = 8
system.cpu.dtb_walker_cache::MJL_rowWidth = 8
system.cpu.dtb_walker_cache::MJL_PC2DirFilname = PC2Dir.txt
system.cpu.icache.tags::MJL_rowWidth = 8
system.cpu.icache::MJL_rowWidth = 8
system.cpu.icache::MJL_PC2DirFilname = PC2Dir.txt
system.cpu.itb_walker_cache.tags::MJL_rowWidth = 8
system.cpu.itb_walker_cache::MJL_rowWidth = 8
system.cpu.itb_walker_cache::MJL_PC2DirFilname = PC2Dir.txt
system.l2.tags::MJL_rowWidth = 8
system.l2::MJL_rowWidth = 8
system.l2::MJL_PC2DirFilname = PC2Dir.txt
**** REAL SIMULATION ****
info: Entering event queue @ 0.  Starting simulation...
system.cpu.dcache.cpu_side::recvTimingReq: hasPC? 1, PC = 4194757, hasData? 0, NoData, Size = 8, time = 91500, MemCmd: ReadReq, needsResponse? Y, addr = 4356640
system.mem_ctrls::access() Cmd: ReadSharedReq, DataDir: 2, CmdDir: 2, Size: 64, addr: 4350640, PC: 4194757, time: 91500
system.cpu.dcache.cpu_side::sendTimingResp: hasPC? 1, PC = 4194757, hasContextId? 1, contextID = 0, Size = 8, time = 91500, Addr = 4356640, Dir = 2, Cmd = 2, Data = 1
system.cpu.dcache.cpu_side::recvTimingReq: hasPC? 1, PC = 4194765, hasData? 1, Data = 0, Size = 8, time = 92500, MemCmd: WriteReq, needsResponse? Y, addr = 4356630
system.mem_ctrls::access() Cmd: ReadExReq, DataDir: 2, CmdDir: 2, Size: 64, addr: 4350630, PC: 4194765, time: 92500
system.cpu.dcache.cpu_side::sendTimingResp: hasPC? 1, PC = 4194765, hasContextId? 1, contextID = 0, Size = 8, time = 92500, Addr = 4356630, Dir = 2, Cmd = 5, noData
system.cpu.dcache.cpu_side::recvTimingReq: hasPC? 1, PC = 4194766, hasData? 1, Data = 7fffffffed98, Size = 8, time = 93000, MemCmd: WriteReq, needsResponse? Y, addr = 4356620
system.cpu.dcache.cpu_side::recvTimingReq: hasPC? 1, PC = 4546851, hasData? 0, NoData, Size = 8, time = 277000, MemCmd: ReadReq, needsResponse? Y, addr = 4356620
system.cpu.dcache.cpu_side::recvTimingReq: hasPC? 1, PC = 4546851, hasData? 0, NoData, Size = 8, time = 282000, MemCmd: ReadReq, needsResponse? Y, addr = 4356620
system.mem_ctrls::access() Cmd: ReadExReq, DataDir: 2, CmdDir: 2, Size: 64, addr: 4350620, PC: 4194766, time: 93000
system.cpu.dcache.cpu_side::sendTimingResp: hasPC? 1, PC = 4194766, hasContextId? 1, contextID = 0, Size = 8, time = 93000, Addr = 4356620, Dir = 2, Cmd = 5, noData
system.cpu.dcache.cpu_side::recvTimingReq: hasPC? 1, PC = 4194788, hasData? 1, Data = 4001e9, Size = 8, time = 93500, MemCmd: WriteReq, needsResponse? Y, addr = 4356610
system.cpu.dcache.cpu_side::sendTimingResp: hasPC? 1, PC = 4546851, hasContextId? 1, contextID = 0, Size = 8, time = 277000, Addr = 4356620, Dir = 2, Cmd = 2, Data = 7fffffffed98
system.cpu.dcache.cpu_side::sendTimingResp: hasPC? 1, PC = 4546851, hasContextId? 1, contextID = 0, Size = 8, time = 282000, Addr = 4356620, Dir = 2, Cmd = 2, Data = 7fffffffed98
system.cpu.dcache.cpu_side::recvTimingReq: hasPC? 1, PC = 4546880, hasData? 0, NoData, Size = 8, time = 359500, MemCmd: ReadReq, needsResponse? Y, addr = 4356670
system.mem_ctrls::access() Cmd: ReadExReq, DataDir: 2, CmdDir: 2, Size: 64, addr: 4350610, PC: 4194788, time: 93500
system.mem_ctrls::access() Cmd: ReadSharedReq, DataDir: 2, CmdDir: 2, Size: 64, addr: 4350670, PC: 4546880, time: 359500
system.cpu.dcache.cpu_side::sendTimingResp: hasPC? 1, PC = 4194788, hasContextId? 1, contextID = 0, Size = 8, time = 93500, Addr = 4356610, Dir = 2, Cmd = 5, noData
system.cpu.dcache.cpu_side::recvTimingReq: hasPC? 1, PC = 4546768, hasData? 1, Data = 0, Size = 8, time = 190000, MemCmd: WriteReq, needsResponse? Y, addr = 4356600
system.cpu.dcache.cpu_side::sendTimingResp: hasPC? 1, PC = 4546880, hasContextId? 1, contextID = 0, Size = 8, time = 359500, Addr = 4356670, Dir = 2, Cmd = 2, Data = 0
system.cpu.dcache.cpu_side::recvTimingReq: hasPC? 1, PC = 4764994, hasData? 0, NoData, Size = 8, time = 460000, MemCmd: ReadReq, needsResponse? Y, addr = 4356700
system.cpu.dcache.cpu_side::recvTimingReq: hasPC? 1, PC = 4765010, hasData? 0, NoData, Size = 8, time = 461000, MemCmd: ReadReq, needsResponse? Y, addr = 4345360
system.cpu.dcache.cpu_side::recvTimingReq: hasPC? 1, PC = 4765017, hasData? 0, NoData, Size = 4, time = 461000, MemCmd: ReadReq, needsResponse? Y, addr = 4345660
system.cpu.dcache.cpu_side::recvTimingReq: hasPC? 1, PC = 4765026, hasData? 0, NoData, Size = 8, time = 461500, MemCmd: ReadReq, needsResponse? Y, addr = 4345350
system.cpu.dcache.cpu_side::recvTimingReq: hasPC? 1, PC = 4765033, hasData? 0, NoData, Size = 8, time = 461500, MemCmd: ReadReq, needsResponse? Y, addr = 4345570
system.cpu.dcache.cpu_side::recvTimingReq: hasPC? 1, PC = 4765042, hasData? 0, NoData, Size = 8, time = 461500, MemCmd: ReadReq, needsResponse? Y, addr = 4343260
system.cpu.dcache.cpu_side::recvTimingReq: hasPC? 1, PC = 4765049, hasData? 0, NoData, Size = 8, time = 462000, MemCmd: ReadReq, needsResponse? Y, addr = 4345650
system.mem_ctrls::access() Cmd: ReadExReq, DataDir: 2, CmdDir: 2, Size: 64, addr: 4350600, PC: 4546768, time: 190000
system.mem_ctrls::access() Cmd: ReadSharedReq, DataDir: 2, CmdDir: 2, Size: 64, addr: 4350700, PC: 4764994, time: 460000
system.cpu.dcache.cpu_side::sendTimingResp: hasPC? 1, PC = 4546768, hasContextId? 1, contextID = 0, Size = 8, time = 190000, Addr = 4356600, Dir = 2, Cmd = 5, noData
system.cpu.dcache.cpu_side::recvTimingReq: hasPC? 1, PC = 4765026, hasData? 0, NoData, Size = 8, time = 512500, MemCmd: ReadReq, needsResponse? Y, addr = 4345350
system.cpu.dcache.cpu_side::recvTimingReq: hasPC? 1, PC = 4765033, hasData? 0, NoData, Size = 8, time = 512500, MemCmd: ReadReq, needsResponse? Y, addr = 4345570
system.cpu.dcache.cpu_side::recvTimingReq: hasPC? 1, PC = 4765042, hasData? 0, NoData, Size = 8, time = 512500, MemCmd: ReadReq, needsResponse? Y, addr = 4343260
system.cpu.dcache.cpu_side::recvTimingReq: hasPC? 1, PC = 4765049, hasData? 0, NoData, Size = 8, time = 512500, MemCmd: ReadReq, needsResponse? Y, addr = 4345650
system.cpu.dcache.cpu_side::recvTimingReq: hasPC? 1, PC = 4546775, hasData? 1, Data = 0, Size = 8, time = 190500, MemCmd: WriteReq, needsResponse? Y, addr = 4356570
system.mem_ctrls::access() Cmd: ReadSharedReq, DataDir: 2, CmdDir: 2, Size: 64, addr: 4340360, PC: 4765010, time: 461000
system.mem_ctrls::access() Cmd: ReadSharedReq, DataDir: 2, CmdDir: 2, Size: 64, addr: 4340660, PC: 4765017, time: 461000
system.cpu.dcache.cpu_side::recvTimingReq: hasPC? 1, PC = 4765058, hasData? 0, NoData, Size = 4, time = 540500, MemCmd: ReadReq, needsResponse? Y, addr = 4040510
system.cpu.dcache.cpu_side::recvTimingReq: hasPC? 1, PC = 4765065, hasData? 0, NoData, Size = 4, time = 540500, MemCmd: ReadReq, needsResponse? Y, addr = 4345760
system.cpu.dcache.cpu_side::recvTimingReq: hasPC? 1, PC = 4765096, hasData? 0, NoData, Size = 8, time = 540500, MemCmd: ReadReq, needsResponse? Y, addr = 4356710
system.cpu.dcache.cpu_side::recvTimingReq: hasPC? 1, PC = 4765108, hasData? 0, NoData, Size = 8, time = 542000, MemCmd: ReadReq, needsResponse? Y, addr = 4356720
system.cpu.dcache.cpu_side::recvTimingReq: hasPC? 1, PC = 4546775, hasData? 1, Data = 0, Size = 8, time = 190500, MemCmd: WriteReq, needsResponse? Y, addr = 4356570
system.cpu.dcache.cpu_side::sendTimingResp: hasPC? 1, PC = 4764994, hasContextId? 1, contextID = 0, Size = 8, time = 460000, Addr = 4356700, Dir = 2, Cmd = 2, Data = 21
system.cpu.dcache.cpu_side::recvTimingReq: hasPC? 1, PC = 4765033, hasData? 0, NoData, Size = 8, time = 544500, MemCmd: ReadReq, needsResponse? Y, addr = 4345570
system.cpu.dcache.cpu_side::recvTimingReq: hasPC? 1, PC = 4765042, hasData? 0, NoData, Size = 8, time = 544500, MemCmd: ReadReq, needsResponse? Y, addr = 4343260
system.cpu.dcache.cpu_side::recvTimingReq: hasPC? 1, PC = 4765049, hasData? 0, NoData, Size = 8, time = 544500, MemCmd: ReadReq, needsResponse? Y, addr = 4345650
system.cpu.dcache.cpu_side::recvTimingReq: hasPC? 1, PC = 4765058, hasData? 0, NoData, Size = 4, time = 544500, MemCmd: ReadReq, needsResponse? Y, addr = 4040510
system.cpu.dcache.cpu_side::recvTimingReq: hasPC? 1, PC = 4765065, hasData? 0, NoData, Size = 4, time = 545000, MemCmd: ReadReq, needsResponse? Y, addr = 4345760
system.cpu.dcache.cpu_side::recvTimingReq: hasPC? 1, PC = 4765096, hasData? 0, NoData, Size = 8, time = 545000, MemCmd: ReadReq, needsResponse? Y, addr = 4356710
system.cpu.dcache.cpu_side::recvTimingReq: hasPC? 1, PC = 4765108, hasData? 0, NoData, Size = 8, time = 545000, MemCmd: ReadReq, needsResponse? Y, addr = 4356720
system.cpu.dcache.cpu_side::recvTimingReq: hasPC? 1, PC = 4765082, hasData? 0, NoData, Size = 8, time = 545500, MemCmd: ReadReq, needsResponse? Y, addr = 3103060
system.cpu.dcache.cpu_side::sendTimingResp: hasPC? 1, PC = 4765010, hasContextId? 1, contextID = 0, Size = 8, time = 461000, Addr = 4345360, Dir = 2, Cmd = 2, Data = 0
system.cpu.dcache.cpu_side::recvTimingReq: hasPC? 1, PC = 4765033, hasData? 0, NoData, Size = 8, time = 554500, MemCmd: ReadReq, needsResponse? Y, addr = 4345570
system.cpu.dcache.cpu_side::recvTimingReq: hasPC? 1, PC = 4765042, hasData? 0, NoData, Size = 8, time = 554500, MemCmd: ReadReq, needsResponse? Y, addr = 4343260
system.cpu.dcache.cpu_side::recvTimingReq: hasPC? 1, PC = 4765049, hasData? 0, NoData, Size = 8, time = 554500, MemCmd: ReadReq, needsResponse? Y, addr = 4345650
system.cpu.dcache.cpu_side::recvTimingReq: hasPC? 1, PC = 4765058, hasData? 0, NoData, Size = 4, time = 554500, MemCmd: ReadReq, needsResponse? Y, addr = 4040510
system.cpu.dcache.cpu_side::recvTimingReq: hasPC? 1, PC = 4765065, hasData? 0, NoData, Size = 4, time = 555000, MemCmd: ReadReq, needsResponse? Y, addr = 4345760
system.cpu.dcache.cpu_side::recvTimingReq: hasPC? 1, PC = 4765082, hasData? 0, NoData, Size = 8, time = 555000, MemCmd: ReadReq, needsResponse? Y, addr = 3103060
system.cpu.dcache.cpu_side::recvTimingReq: hasPC? 1, PC = 4765096, hasData? 0, NoData, Size = 8, time = 555000, MemCmd: ReadReq, needsResponse? Y, addr = 4356710
system.cpu.dcache.cpu_side::recvTimingReq: hasPC? 1, PC = 4765108, hasData? 0, NoData, Size = 8, time = 555000, MemCmd: ReadReq, needsResponse? Y, addr = 4356720
system.mem_ctrls::access() Cmd: ReadSharedReq, DataDir: 2, CmdDir: 2, Size: 64, addr: 4340350, PC: 4765026, time: 512500
system.cpu.dcache.cpu_side::sendTimingResp: hasPC? 1, PC = 4765017, hasContextId? 1, contextID = 0, Size = 4, time = 461000, Addr = 4345660, Dir = 2, Cmd = 2, Data = 0
system.cpu.dcache.cpu_side::recvTimingReq: hasPC? 1, PC = 4765042, hasData? 0, NoData, Size = 8, time = 564500, MemCmd: ReadReq, needsResponse? Y, addr = 4343260
system.cpu.dcache.cpu_side::recvTimingReq: hasPC? 1, PC = 4765049, hasData? 0, NoData, Size = 8, time = 564500, MemCmd: ReadReq, needsResponse? Y, addr = 4345650
system.cpu.dcache.cpu_side::recvTimingReq: hasPC? 1, PC = 4765058, hasData? 0, NoData, Size = 4, time = 564500, MemCmd: ReadReq, needsResponse? Y, addr = 4040510
system.cpu.dcache.cpu_side::recvTimingReq: hasPC? 1, PC = 4765065, hasData? 0, NoData, Size = 4, time = 564500, MemCmd: ReadReq, needsResponse? Y, addr = 4345760
system.cpu.dcache.cpu_side::recvTimingReq: hasPC? 1, PC = 4765082, hasData? 0, NoData, Size = 8, time = 565000, MemCmd: ReadReq, needsResponse? Y, addr = 3103060
system.cpu.dcache.cpu_side::recvTimingReq: hasPC? 1, PC = 4765096, hasData? 0, NoData, Size = 8, time = 565000, MemCmd: ReadReq, needsResponse? Y, addr = 4356710
system.cpu.dcache.cpu_side::recvTimingReq: hasPC? 1, PC = 4765108, hasData? 0, NoData, Size = 8, time = 565000, MemCmd: ReadReq, needsResponse? Y, addr = 4356720
system.mem_ctrls::access() Cmd: ReadExReq, DataDir: 2, CmdDir: 2, Size: 64, addr: 4350570, PC: 4546775, time: 190500
system.mem_ctrls::access() Cmd: ReadSharedReq, DataDir: 2, CmdDir: 2, Size: 64, addr: 4340570, PC: 4765033, time: 554500
system.cpu.dcache.cpu_side::sendTimingResp: hasPC? 1, PC = 4765026, hasContextId? 1, contextID = 0, Size = 8, time = 512500, Addr = 4345350, Dir = 2, Cmd = 2, Data = 0
system.cpu.dcache.cpu_side::recvTimingReq: hasPC? 1, PC = 4765049, hasData? 0, NoData, Size = 8, time = 604500, MemCmd: ReadReq, needsResponse? Y, addr = 4345650
system.cpu.dcache.cpu_side::recvTimingReq: hasPC? 1, PC = 4765058, hasData? 0, NoData, Size = 4, time = 604500, MemCmd: ReadReq, needsResponse? Y, addr = 4040510
system.cpu.dcache.cpu_side::recvTimingReq: hasPC? 1, PC = 4765065, hasData? 0, NoData, Size = 4, time = 604500, MemCmd: ReadReq, needsResponse? Y, addr = 4345760
system.cpu.dcache.cpu_side::recvTimingReq: hasPC? 1, PC = 4765082, hasData? 0, NoData, Size = 8, time = 604500, MemCmd: ReadReq, needsResponse? Y, addr = 3103060
system.cpu.dcache.cpu_side::recvTimingReq: hasPC? 1, PC = 4765096, hasData? 0, NoData, Size = 8, time = 605000, MemCmd: ReadReq, needsResponse? Y, addr = 4356710
system.cpu.dcache.cpu_side::recvTimingReq: hasPC? 1, PC = 4765108, hasData? 0, NoData, Size = 8, time = 605000, MemCmd: ReadReq, needsResponse? Y, addr = 4356720
system.mem_ctrls::access() Cmd: ReadSharedReq, DataDir: 2, CmdDir: 2, Size: 64, addr: 4340260, PC: 4765042, time: 564500
system.cpu.dcache.cpu_side::sendTimingResp: hasPC? 1, PC = 4546775, hasContextId? 1, contextID = 0, Size = 8, time = 190500, Addr = 4356570, Dir = 2, Cmd = 5, noData
system.cpu.dcache.cpu_side::recvTimingReq: hasPC? 1, PC = 4765058, hasData? 0, NoData, Size = 4, time = 630500, MemCmd: ReadReq, needsResponse? Y, addr = 4040510
system.cpu.dcache.cpu_side::recvTimingReq: hasPC? 1, PC = 4765065, hasData? 0, NoData, Size = 4, time = 630500, MemCmd: ReadReq, needsResponse? Y, addr = 4345760
system.cpu.dcache.cpu_side::recvTimingReq: hasPC? 1, PC = 4765082, hasData? 0, NoData, Size = 8, time = 630500, MemCmd: ReadReq, needsResponse? Y, addr = 3103060
system.cpu.dcache.cpu_side::recvTimingReq: hasPC? 1, PC = 4765096, hasData? 0, NoData, Size = 8, time = 630500, MemCmd: ReadReq, needsResponse? Y, addr = 4356710
system.cpu.dcache.cpu_side::recvTimingReq: hasPC? 1, PC = 4546777, hasData? 1, Data = 0, Size = 8, time = 191000, MemCmd: WriteReq, needsResponse? Y, addr = 4356560
system.cpu.dcache.cpu_side::recvTimingReq: hasPC? 1, PC = 4765108, hasData? 0, NoData, Size = 8, time = 631000, MemCmd: ReadReq, needsResponse? Y, addr = 4356720
system.cpu.dcache.cpu_side::recvTimingReq: hasPC? 1, PC = 4546777, hasData? 1, Data = 0, Size = 8, time = 191000, MemCmd: WriteReq, needsResponse? Y, addr = 4356560
system.cpu.dcache.cpu_side::sendTimingResp: hasPC? 1, PC = 4765033, hasContextId? 1, contextID = 0, Size = 8, time = 554500, Addr = 4345570, Dir = 2, Cmd = 2, Data = 0
system.cpu.dcache.cpu_side::recvTimingReq: hasPC? 1, PC = 4765065, hasData? 0, NoData, Size = 4, time = 639500, MemCmd: ReadReq, needsResponse? Y, addr = 4345760
system.cpu.dcache.cpu_side::recvTimingReq: hasPC? 1, PC = 4765082, hasData? 0, NoData, Size = 8, time = 639500, MemCmd: ReadReq, needsResponse? Y, addr = 3103060
system.cpu.dcache.cpu_side::recvTimingReq: hasPC? 1, PC = 4765096, hasData? 0, NoData, Size = 8, time = 639500, MemCmd: ReadReq, needsResponse? Y, addr = 4356710
system.cpu.dcache.cpu_side::recvTimingReq: hasPC? 1, PC = 4765108, hasData? 0, NoData, Size = 8, time = 639500, MemCmd: ReadReq, needsResponse? Y, addr = 4356720
system.mem_ctrls::access() Cmd: ReadSharedReq, DataDir: 2, CmdDir: 2, Size: 64, addr: 4340650, PC: 4765049, time: 604500
system.cpu.dcache.cpu_side::sendTimingResp: hasPC? 1, PC = 4765042, hasContextId? 1, contextID = 0, Size = 8, time = 564500, Addr = 4343260, Dir = 2, Cmd = 2, Data = 0
system.cpu.dcache.cpu_side::recvTimingReq: hasPC? 1, PC = 4765065, hasData? 0, NoData, Size = 4, time = 649500, MemCmd: ReadReq, needsResponse? Y, addr = 4345760
system.cpu.dcache.cpu_side::recvTimingReq: hasPC? 1, PC = 4765082, hasData? 0, NoData, Size = 8, time = 649500, MemCmd: ReadReq, needsResponse? Y, addr = 3103060
system.cpu.dcache.cpu_side::recvTimingReq: hasPC? 1, PC = 4765096, hasData? 0, NoData, Size = 8, time = 649500, MemCmd: ReadReq, needsResponse? Y, addr = 4356710
system.cpu.dcache.cpu_side::recvTimingReq: hasPC? 1, PC = 4765108, hasData? 0, NoData, Size = 8, time = 649500, MemCmd: ReadReq, needsResponse? Y, addr = 4356720
system.mem_ctrls::access() Cmd: ReadSharedReq, DataDir: 2, CmdDir: 2, Size: 64, addr: 4040510, PC: 4765058, time: 630500
system.cpu.dcache.cpu_side::sendTimingResp: hasPC? 1, PC = 4765049, hasContextId? 1, contextID = 0, Size = 8, time = 604500, Addr = 4345650, Dir = 2, Cmd = 2, Data = 0
system.cpu.dcache.cpu_side::recvTimingReq: hasPC? 1, PC = 4765082, hasData? 0, NoData, Size = 8, time = 687500, MemCmd: ReadReq, needsResponse? Y, addr = 3103060
system.cpu.dcache.cpu_side::recvTimingReq: hasPC? 1, PC = 4765096, hasData? 0, NoData, Size = 8, time = 687500, MemCmd: ReadReq, needsResponse? Y, addr = 4356710
system.cpu.dcache.cpu_side::recvTimingReq: hasPC? 1, PC = 4765108, hasData? 0, NoData, Size = 8, time = 687500, MemCmd: ReadReq, needsResponse? Y, addr = 4356720
system.mem_ctrls::access() Cmd: ReadExReq, DataDir: 2, CmdDir: 2, Size: 64, addr: 4350560, PC: 4546777, time: 191000
system.mem_ctrls::access() Cmd: ReadSharedReq, DataDir: 2, CmdDir: 2, Size: 64, addr: 4340760, PC: 4765065, time: 649500
system.cpu.dcache.cpu_side::sendTimingResp: hasPC? 1, PC = 4765058, hasContextId? 1, contextID = 0, Size = 4, time = 630500, Addr = 4040510, Dir = 2, Cmd = 2, Data = 1
system.cpu.dcache.cpu_side::recvTimingReq: hasPC? 1, PC = 4765096, hasData? 0, NoData, Size = 8, time = 721500, MemCmd: ReadReq, needsResponse? Y, addr = 4356710
system.cpu.dcache.cpu_side::recvTimingReq: hasPC? 1, PC = 4765108, hasData? 0, NoData, Size = 8, time = 721500, MemCmd: ReadReq, needsResponse? Y, addr = 4356720
system.cpu.dcache.cpu_side::sendTimingResp: hasPC? 1, PC = 4546777, hasContextId? 1, contextID = 0, Size = 8, time = 191000, Addr = 4356560, Dir = 2, Cmd = 5, noData
system.cpu.dcache.cpu_side::recvTimingReq: hasPC? 1, PC = 4765108, hasData? 0, NoData, Size = 8, time = 734500, MemCmd: ReadReq, needsResponse? Y, addr = 4356720
system.cpu.dcache.cpu_side::recvTimingReq: hasPC? 1, PC = 4546779, hasData? 1, Data = 0, Size = 8, time = 191500, MemCmd: WriteReq, needsResponse? Y, addr = 4356550
system.mem_ctrls::access() Cmd: ReadSharedReq, DataDir: 2, CmdDir: 2, Size: 64, addr: 3100060, PC: 4765082, time: 687500
system.cpu.dcache.cpu_side::recvTimingReq: hasPC? 1, PC = 4546779, hasData? 1, Data = 0, Size = 8, time = 191500, MemCmd: WriteReq, needsResponse? Y, addr = 4356550
system.cpu.dcache.cpu_side::sendTimingResp: hasPC? 1, PC = 4765065, hasContextId? 1, contextID = 0, Size = 4, time = 649500, Addr = 4345760, Dir = 2, Cmd = 2, Data = 0
system.mem_ctrls::access() Cmd: ReadSharedReq, DataDir: 2, CmdDir: 2, Size: 64, addr: 4350710, PC: 4765096, time: 721500
system.cpu.dcache.cpu_side::sendTimingResp: hasPC? 1, PC = 4765082, hasContextId? 1, contextID = 0, Size = 8, time = 687500, Addr = 3103060, Dir = 2, Cmd = 2, Data = 48b628
system.cpu.dcache.cpu_side::recvTimingReq: hasPC? 1, PC = 4765224, hasData? 0, NoData, Size = 8, time = 794000, MemCmd: ReadReq, needsResponse? Y, addr = 4356710
system.cpu.dcache.cpu_side::recvTimingReq: hasPC? 1, PC = 4765232, hasData? 0, NoData, Size = 8, time = 795000, MemCmd: ReadReq, needsResponse? Y, addr = 4356720
system.mem_ctrls::access() Cmd: ReadSharedReq, DataDir: 2, CmdDir: 2, Size: 64, addr: 4350720, PC: 4765108, time: 734500
system.cpu.dcache.cpu_side::sendTimingResp: hasPC? 1, PC = 4765096, hasContextId? 1, contextID = 0, Size = 8, time = 721500, Addr = 4356710, Dir = 2, Cmd = 2, Data = ffffffffff600000
system.cpu.dcache.cpu_side::sendTimingResp: hasPC? 1, PC = 4765224, hasContextId? 1, contextID = 0, Size = 8, time = 794000, Addr = 4356710, Dir = 2, Cmd = 2, Data = ffffffffff600000
system.cpu.dcache.cpu_side::recvTimingReq: hasPC? 1, PC = 4546939, hasData? 0, NoData, Size = 1, time = 815500, MemCmd: ReadReq, needsResponse? Y, addr = 4355602
system.cpu.dcache.cpu_side::sendTimingResp: hasPC? 1, PC = 4546939, hasContextId? 1, contextID = 0, Size = 1, time = 815500, Addr = 4355602, Dir = 2, Cmd = 2, Data = 3e4c900
system.mem_ctrls::access() Cmd: ReadExReq, DataDir: 2, CmdDir: 2, Size: 64, addr: 4350550, PC: 4546779, time: 191500
system.cpu.dcache.cpu_side::sendTimingResp: hasPC? 1, PC = 4765108, hasContextId? 1, contextID = 0, Size = 8, time = 734500, Addr = 4356720, Dir = 2, Cmd = 2, Data = 10
system.cpu.dcache.cpu_side::sendTimingResp: hasPC? 1, PC = 4765232, hasContextId? 1, contextID = 0, Size = 8, time = 795000, Addr = 4356720, Dir = 2, Cmd = 2, Data = 10
system.cpu.dcache.cpu_side::sendTimingResp: hasPC? 1, PC = 4546779, hasContextId? 1, contextID = 0, Size = 8, time = 191500, Addr = 4356550, Dir = 2, Cmd = 5, noData
system.cpu.dcache.cpu_side::recvTimingReq: hasPC? 1, PC = 4546784, hasData? 1, Data = 0, Size = 8, time = 192000, MemCmd: WriteReq, needsResponse? Y, addr = 4356540
system.cpu.dcache.cpu_side::recvTimingReq: hasPC? 1, PC = 4765082, hasData? 0, NoData, Size = 8, time = 863500, MemCmd: ReadReq, needsResponse? Y, addr = 3102650
system.cpu.dcache.cpu_side::recvTimingReq: hasPC? 1, PC = 4765096, hasData? 0, NoData, Size = 8, time = 863500, MemCmd: ReadReq, needsResponse? Y, addr = 4356730
system.cpu.dcache.cpu_side::recvTimingReq: hasPC? 1, PC = 4765108, hasData? 0, NoData, Size = 8, time = 864500, MemCmd: ReadReq, needsResponse? Y, addr = 4356740
system.mem_ctrls::access() Cmd: ReadExReq, DataDir: 2, CmdDir: 2, Size: 64, addr: 4350540, PC: 4546784, time: 192000
system.mem_ctrls::access() Cmd: ReadSharedReq, DataDir: 2, CmdDir: 2, Size: 64, addr: 3100650, PC: 4765082, time: 863500
system.mem_ctrls::access() Cmd: ReadSharedReq, DataDir: 2, CmdDir: 2, Size: 64, addr: 4350730, PC: 4765096, time: 863500
system.mem_ctrls::access() Cmd: ReadSharedReq, DataDir: 2, CmdDir: 2, Size: 64, addr: 4350740, PC: 4765108, time: 864500
system.cpu.dcache.cpu_side::sendTimingResp: hasPC? 1, PC = 4546784, hasContextId? 1, contextID = 0, Size = 8, time = 192000, Addr = 4356540, Dir = 2, Cmd = 5, noData
system.cpu.dcache.cpu_side::recvTimingReq: hasPC? 1, PC = 4546788, hasData? 1, Data = 0, Size = 8, time = 192500, MemCmd: WriteReq, needsResponse? Y, addr = 4356530
system.cpu.dcache.cpu_side::sendTimingResp: hasPC? 1, PC = 4765082, hasContextId? 1, contextID = 0, Size = 8, time = 863500, Addr = 3102650, Dir = 2, Cmd = 2, Data = 48b688
system.cpu.dcache.cpu_side::sendTimingResp: hasPC? 1, PC = 4765096, hasContextId? 1, contextID = 0, Size = 8, time = 863500, Addr = 4356730, Dir = 2, Cmd = 2, Data = 78bfbff
system.cpu.dcache.cpu_side::sendTimingResp: hasPC? 1, PC = 4765108, hasContextId? 1, contextID = 0, Size = 8, time = 864500, Addr = 4356740, Dir = 2, Cmd = 2, Data = 6
system.mem_ctrls::access() Cmd: ReadExReq, DataDir: 2, CmdDir: 2, Size: 64, addr: 4350530, PC: 4546788, time: 192500
system.cpu.dcache.cpu_side::sendTimingResp: hasPC? 1, PC = 4546788, hasContextId? 1, contextID = 0, Size = 8, time = 192500, Addr = 4356530, Dir = 2, Cmd = 5, noData
system.cpu.dcache.cpu_side::recvTimingReq: hasPC? 1, PC = 4546802, hasData? 1, Data = 4003b2, Size = 8, time = 193500, MemCmd: WriteReq, needsResponse? Y, addr = 4355370
system.cpu.dcache.cpu_side::recvTimingReq: hasPC? 1, PC = 4765320, hasData? 0, NoData, Size = 8, time = 1041000, MemCmd: ReadReq, needsResponse? Y, addr = 4356730
system.cpu.dcache.cpu_side::sendTimingResp: hasPC? 1, PC = 4765320, hasContextId? 1, contextID = 0, Size = 8, time = 1041000, Addr = 4356730, Dir = 2, Cmd = 2, Data = 78bfbff
system.cpu.dcache.cpu_side::recvTimingReq: hasPC? 1, PC = 4765328, hasData? 0, NoData, Size = 8, time = 1042000, MemCmd: ReadReq, needsResponse? Y, addr = 4356740
system.cpu.dcache.cpu_side::recvTimingReq: hasPC? 1, PC = 4765352, hasData? 0, NoData, Size = 4, time = 1042000, MemCmd: ReadReq, needsResponse? Y, addr = 4356750
system.cpu.dcache.cpu_side::recvTimingReq: hasPC? 1, PC = 4765362, hasData? 0, NoData, Size = 8, time = 1042500, MemCmd: ReadReq, needsResponse? Y, addr = 4356760
system.cpu.dcache.cpu_side::sendTimingResp: hasPC? 1, PC = 4765328, hasContextId? 1, contextID = 0, Size = 8, time = 1042000, Addr = 4356740, Dir = 2, Cmd = 2, Data = 6
system.cpu.dcache.cpu_side::recvTimingReq: hasPC? 1, PC = 4765082, hasData? 0, NoData, Size = 8, time = 1050000, MemCmd: ReadReq, needsResponse? Y, addr = 3102530
system.cpu.dcache.cpu_side::recvTimingReq: hasPC? 1, PC = 4765096, hasData? 0, NoData, Size = 8, time = 1050000, MemCmd: ReadReq, needsResponse? Y, addr = 4356750
system.cpu.dcache.cpu_side::recvTimingReq: hasPC? 1, PC = 4765108, hasData? 0, NoData, Size = 8, time = 1051000, MemCmd: ReadReq, needsResponse? Y, addr = 4356760
system.mem_ctrls::access() Cmd: ReadExReq, DataDir: 2, CmdDir: 2, Size: 64, addr: 4350370, PC: 4546802, time: 193500
system.mem_ctrls::access() Cmd: ReadSharedReq, DataDir: 2, CmdDir: 2, Size: 64, addr: 4350750, PC: 4765352, time: 1042000
system.cpu.dcache.cpu_side::sendTimingResp: hasPC? 1, PC = 4546802, hasContextId? 1, contextID = 0, Size = 8, time = 193500, Addr = 4355370, Dir = 2, Cmd = 5, noData
system.cpu.dcache.cpu_side::recvTimingReq: hasPC? 1, PC = 4765096, hasData? 0, NoData, Size = 8, time = 1111500, MemCmd: ReadReq, needsResponse? Y, addr = 4356750
system.cpu.dcache.cpu_side::recvTimingReq: hasPC? 1, PC = 4765108, hasData? 0, NoData, Size = 8, time = 1111500, MemCmd: ReadReq, needsResponse? Y, addr = 4356760
system.cpu.dcache.cpu_side::recvTimingReq: hasPC? 1, PC = 4546807, hasData? 1, Data = 1, Size = 4, time = 193500, MemCmd: WriteReq, needsResponse? Y, addr = 4355354
system.mem_ctrls::access() Cmd: ReadSharedReq, DataDir: 2, CmdDir: 2, Size: 64, addr: 4350760, PC: 4765362, time: 1042500
system.cpu.dcache.cpu_side::sendTimingResp: hasPC? 1, PC = 4765352, hasContextId? 1, contextID = 0, Size = 4, time = 1042000, Addr = 4356750, Dir = 2, Cmd = 2, Data = 1000
system.cpu.dcache.cpu_side::sendTimingResp: hasPC? 1, PC = 4765096, hasContextId? 1, contextID = 0, Size = 8, time = 1111500, Addr = 4356750, Dir = 2, Cmd = 2, Data = 1000
system.mem_ctrls::access() Cmd: ReadSharedReq, DataDir: 2, CmdDir: 2, Size: 64, addr: 3100530, PC: 4765082, time: 1050000
system.mem_ctrls::access() Cmd: ReadExReq, DataDir: 2, CmdDir: 2, Size: 64, addr: 4350350, PC: 4546807, time: 193500
system.cpu.dcache.cpu_side::sendTimingResp: hasPC? 1, PC = 4765362, hasContextId? 1, contextID = 0, Size = 8, time = 1042500, Addr = 4356760, Dir = 2, Cmd = 2, Data = 11
system.cpu.dcache.cpu_side::sendTimingResp: hasPC? 1, PC = 4765108, hasContextId? 1, contextID = 0, Size = 8, time = 1111500, Addr = 4356760, Dir = 2, Cmd = 2, Data = 11
system.cpu.dcache.cpu_side::recvTimingReq: hasPC? 1, PC = 4765082, hasData? 0, NoData, Size = 8, time = 1183500, MemCmd: ReadReq, needsResponse? Y, addr = 3102660
system.cpu.dcache.cpu_side::recvTimingReq: hasPC? 1, PC = 4765096, hasData? 0, NoData, Size = 8, time = 1183500, MemCmd: ReadReq, needsResponse? Y, addr = 4356770
system.cpu.dcache.cpu_side::sendTimingResp: hasPC? 1, PC = 4765082, hasContextId? 1, contextID = 0, Size = 8, time = 1050000, Addr = 3102530, Dir = 2, Cmd = 2, Data = 48b5a8
system.cpu.dcache.cpu_side::recvTimingReq: hasPC? 1, PC = 4765108, hasData? 0, NoData, Size = 8, time = 1184500, MemCmd: ReadReq, needsResponse? Y, addr = 4357000
system.cpu.dcache.cpu_side::sendTimingResp: hasPC? 1, PC = 4546807, hasContextId? 1, contextID = 0, Size = 4, time = 193500, Addr = 4355354, Dir = 2, Cmd = 5, noData
system.cpu.dcache.cpu_side::recvTimingReq: hasPC? 1, PC = 4546811, hasData? 1, Data = 7fffffffeda8, Size = 8, time = 193500, MemCmd: WriteReq, needsResponse? Y, addr = 4355360
system.cpu.dcache.cpu_side::recvTimingReq: hasPC? 1, PC = 4765096, hasData? 0, NoData, Size = 8, time = 1198500, MemCmd: ReadReq, needsResponse? Y, addr = 4356750
system.cpu.dcache.cpu_side::recvTimingReq: hasPC? 1, PC = 4765108, hasData? 0, NoData, Size = 8, time = 1199500, MemCmd: ReadReq, needsResponse? Y, addr = 4356760
system.mem_ctrls::access() Cmd: ReadSharedReq, DataDir: 2, CmdDir: 2, Size: 64, addr: 3100660, PC: 4765082, time: 1183500
system.mem_ctrls::access() Cmd: ReadSharedReq, DataDir: 2, CmdDir: 2, Size: 64, addr: 4350770, PC: 4765096, time: 1183500
system.mem_ctrls::access() Cmd: ReadSharedReq, DataDir: 2, CmdDir: 2, Size: 64, addr: 4350000, PC: 4765108, time: 1184500
system.mem_ctrls::access() Cmd: ReadExReq, DataDir: 2, CmdDir: 2, Size: 64, addr: 4350360, PC: 4546811, time: 193500
system.cpu.dcache.cpu_side::sendTimingResp: hasPC? 1, PC = 4765082, hasContextId? 1, contextID = 0, Size = 8, time = 1183500, Addr = 3102660, Dir = 2, Cmd = 2, Data = 48b668
system.cpu.dcache.cpu_side::recvTimingReq: hasPC? 1, PC = 4765096, hasData? 0, NoData, Size = 8, time = 1266500, MemCmd: ReadReq, needsResponse? Y, addr = 4356750
system.cpu.dcache.cpu_side::recvTimingReq: hasPC? 1, PC = 4765108, hasData? 0, NoData, Size = 8, time = 1266500, MemCmd: ReadReq, needsResponse? Y, addr = 4356760
system.cpu.dcache.cpu_side::sendTimingResp: hasPC? 1, PC = 4765096, hasContextId? 1, contextID = 0, Size = 8, time = 1266500, Addr = 4356750, Dir = 2, Cmd = 2, Data = 1000
system.cpu.dcache.cpu_side::sendTimingResp: hasPC? 1, PC = 4765108, hasContextId? 1, contextID = 0, Size = 8, time = 1266500, Addr = 4356760, Dir = 2, Cmd = 2, Data = 11
system.cpu.dcache.cpu_side::sendTimingResp: hasPC? 1, PC = 4765096, hasContextId? 1, contextID = 0, Size = 8, time = 1183500, Addr = 4356770, Dir = 2, Cmd = 2, Data = 64
system.cpu.dcache.cpu_side::recvTimingReq: hasPC? 1, PC = 4765082, hasData? 0, NoData, Size = 8, time = 1280000, MemCmd: ReadReq, needsResponse? Y, addr = 3102660
system.cpu.dcache.cpu_side::recvTimingReq: hasPC? 1, PC = 4765096, hasData? 0, NoData, Size = 8, time = 1280000, MemCmd: ReadReq, needsResponse? Y, addr = 4356770
system.cpu.dcache.cpu_side::sendTimingResp: hasPC? 1, PC = 4765082, hasContextId? 1, contextID = 0, Size = 8, time = 1280000, Addr = 3102660, Dir = 2, Cmd = 2, Data = 48b668
system.cpu.dcache.cpu_side::recvTimingReq: hasPC? 1, PC = 4765108, hasData? 0, NoData, Size = 8, time = 1281000, MemCmd: ReadReq, needsResponse? Y, addr = 4357000
system.cpu.dcache.cpu_side::sendTimingResp: hasPC? 1, PC = 4765096, hasContextId? 1, contextID = 0, Size = 8, time = 1280000, Addr = 4356770, Dir = 2, Cmd = 2, Data = 64
system.cpu.dcache.cpu_side::sendTimingResp: hasPC? 1, PC = 4765108, hasContextId? 1, contextID = 0, Size = 8, time = 1184500, Addr = 4357000, Dir = 2, Cmd = 2, Data = 3
system.cpu.dcache.cpu_side::sendTimingResp: hasPC? 1, PC = 4765108, hasContextId? 1, contextID = 0, Size = 8, time = 1281000, Addr = 4357000, Dir = 2, Cmd = 2, Data = 3
system.cpu.dcache.cpu_side::recvTimingReq: hasPC? 1, PC = 4765288, hasData? 0, NoData, Size = 4, time = 1288500, MemCmd: ReadReq, needsResponse? Y, addr = 4356770
system.cpu.dcache.cpu_side::sendTimingResp: hasPC? 1, PC = 4765288, hasContextId? 1, contextID = 0, Size = 4, time = 1288500, Addr = 4356770, Dir = 2, Cmd = 2, Data = 64
system.cpu.dcache.cpu_side::recvTimingReq: hasPC? 1, PC = 4765296, hasData? 0, NoData, Size = 8, time = 1289500, MemCmd: ReadReq, needsResponse? Y, addr = 4357000
system.cpu.dcache.cpu_side::recvTimingReq: hasPC? 1, PC = 4765320, hasData? 0, NoData, Size = 8, time = 1289500, MemCmd: ReadReq, needsResponse? Y, addr = 4357010
system.cpu.dcache.cpu_side::sendTimingResp: hasPC? 1, PC = 4765296, hasContextId? 1, contextID = 0, Size = 8, time = 1289500, Addr = 4357000, Dir = 2, Cmd = 2, Data = 3
system.cpu.dcache.cpu_side::recvTimingReq: hasPC? 1, PC = 4765328, hasData? 0, NoData, Size = 8, time = 1290500, MemCmd: ReadReq, needsResponse? Y, addr = 4357020
system.cpu.dcache.cpu_side::recvTimingReq: hasPC? 1, PC = 4765352, hasData? 0, NoData, Size = 4, time = 1290500, MemCmd: ReadReq, needsResponse? Y, addr = 4357030
system.cpu.dcache.cpu_side::sendTimingResp: hasPC? 1, PC = 4546811, hasContextId? 1, contextID = 0, Size = 8, time = 193500, Addr = 4355360, Dir = 2, Cmd = 5, noData
system.cpu.dcache.cpu_side::recvTimingReq: hasPC? 1, PC = 4546830, hasData? 1, Data = 0, Size = 4, time = 282500, MemCmd: WriteReq, needsResponse? Y, addr = 4052150
system.cpu.dcache.cpu_side::recvTimingReq: hasPC? 1, PC = 4765082, hasData? 0, NoData, Size = 8, time = 1298500, MemCmd: ReadReq, needsResponse? Y, addr = 3102500
system.cpu.dcache.cpu_side::recvTimingReq: hasPC? 1, PC = 4765096, hasData? 0, NoData, Size = 8, time = 1298500, MemCmd: ReadReq, needsResponse? Y, addr = 4357010
system.cpu.dcache.cpu_side::recvTimingReq: hasPC? 1, PC = 4765108, hasData? 0, NoData, Size = 8, time = 1299500, MemCmd: ReadReq, needsResponse? Y, addr = 4357020
system.cpu.dcache.cpu_side::recvTimingReq: hasPC? 1, PC = 4546897, hasData? 0, NoData, Size = 4, time = 1314500, MemCmd: ReadReq, needsResponse? Y, addr = 4052150
system.mem_ctrls::access() Cmd: ReadSharedReq, DataDir: 2, CmdDir: 2, Size: 64, addr: 4350010, PC: 4765320, time: 1289500
system.mem_ctrls::access() Cmd: ReadSharedReq, DataDir: 2, CmdDir: 2, Size: 64, addr: 4350020, PC: 4765328, time: 1290500
system.mem_ctrls::access() Cmd: ReadSharedReq, DataDir: 2, CmdDir: 2, Size: 64, addr: 4350030, PC: 4765352, time: 1290500
system.cpu.dcache.cpu_side::sendTimingResp: hasPC? 1, PC = 4765320, hasContextId? 1, contextID = 0, Size = 8, time = 1289500, Addr = 4357010, Dir = 2, Cmd = 2, Data = 400040
system.cpu.dcache.cpu_side::recvTimingReq: hasPC? 1, PC = 4765082, hasData? 0, NoData, Size = 8, time = 1372500, MemCmd: ReadReq, needsResponse? Y, addr = 3102500
system.cpu.dcache.cpu_side::recvTimingReq: hasPC? 1, PC = 4765096, hasData? 0, NoData, Size = 8, time = 1372500, MemCmd: ReadReq, needsResponse? Y, addr = 4357010
system.cpu.dcache.cpu_side::recvTimingReq: hasPC? 1, PC = 4765108, hasData? 0, NoData, Size = 8, time = 1372500, MemCmd: ReadReq, needsResponse? Y, addr = 4357020
system.cpu.dcache.cpu_side::recvTimingReq: hasPC? 1, PC = 4546897, hasData? 0, NoData, Size = 4, time = 1372500, MemCmd: ReadReq, needsResponse? Y, addr = 4052150
system.mem_ctrls::access() Cmd: ReadExReq, DataDir: 2, CmdDir: 2, Size: 64, addr: 4050150, PC: 4546830, time: 282500
system.cpu.dcache.cpu_side::sendTimingResp: hasPC? 1, PC = 4765328, hasContextId? 1, contextID = 0, Size = 8, time = 1290500, Addr = 4357020, Dir = 2, Cmd = 2, Data = 4
system.cpu.dcache.cpu_side::recvTimingReq: hasPC? 1, PC = 4765096, hasData? 0, NoData, Size = 8, time = 1392500, MemCmd: ReadReq, needsResponse? Y, addr = 4357010
system.cpu.dcache.cpu_side::recvTimingReq: hasPC? 1, PC = 4765108, hasData? 0, NoData, Size = 8, time = 1392500, MemCmd: ReadReq, needsResponse? Y, addr = 4357020
system.cpu.dcache.cpu_side::recvTimingReq: hasPC? 1, PC = 4546897, hasData? 0, NoData, Size = 4, time = 1392500, MemCmd: ReadReq, needsResponse? Y, addr = 4052150
system.cpu.dcache.cpu_side::sendTimingResp: hasPC? 1, PC = 4765096, hasContextId? 1, contextID = 0, Size = 8, time = 1392500, Addr = 4357010, Dir = 2, Cmd = 2, Data = 400040
system.cpu.dcache.cpu_side::sendTimingResp: hasPC? 1, PC = 4765108, hasContextId? 1, contextID = 0, Size = 8, time = 1392500, Addr = 4357020, Dir = 2, Cmd = 2, Data = 4
system.cpu.dcache.cpu_side::sendTimingResp: hasPC? 1, PC = 4765352, hasContextId? 1, contextID = 0, Size = 4, time = 1290500, Addr = 4357030, Dir = 2, Cmd = 2, Data = 38
system.cpu.dcache.cpu_side::recvTimingReq: hasPC? 1, PC = 4765082, hasData? 0, NoData, Size = 8, time = 1406500, MemCmd: ReadReq, needsResponse? Y, addr = 3102510
system.cpu.dcache.cpu_side::recvTimingReq: hasPC? 1, PC = 4765096, hasData? 0, NoData, Size = 8, time = 1406500, MemCmd: ReadReq, needsResponse? Y, addr = 4357030
system.cpu.dcache.cpu_side::sendTimingResp: hasPC? 1, PC = 4765096, hasContextId? 1, contextID = 0, Size = 8, time = 1406500, Addr = 4357030, Dir = 2, Cmd = 2, Data = 38
system.cpu.dcache.cpu_side::recvTimingReq: hasPC? 1, PC = 4765108, hasData? 0, NoData, Size = 8, time = 1407500, MemCmd: ReadReq, needsResponse? Y, addr = 4357040
system.mem_ctrls::access() Cmd: ReadSharedReq, DataDir: 2, CmdDir: 2, Size: 64, addr: 3100500, PC: 4765082, time: 1372500
system.cpu.dcache.cpu_side::sendTimingResp: hasPC? 1, PC = 4546830, hasContextId? 1, contextID = 0, Size = 4, time = 282500, Addr = 4052150, Dir = 2, Cmd = 5, noData
system.cpu.dcache.cpu_side::recvTimingReq: hasPC? 1, PC = 4546859, hasData? 1, Data = 7fffffffedb8, Size = 8, time = 284000, MemCmd: WriteReq, needsResponse? Y, addr = 4336310
system.cpu.dcache.cpu_side::sendTimingResp: hasPC? 1, PC = 4546897, hasContextId? 1, contextID = 0, Size = 4, time = 1392500, Addr = 4052150, Dir = 2, Cmd = 2, Data = 0
system.mem_ctrls::access() Cmd: ReadSharedReq, DataDir: 2, CmdDir: 2, Size: 64, addr: 3100510, PC: 4765082, time: 1406500
system.cpu.dcache.cpu_side::sendTimingResp: hasPC? 1, PC = 4765082, hasContextId? 1, contextID = 0, Size = 8, time = 1372500, Addr = 3102500, Dir = 2, Cmd = 2, Data = 48b748
system.cpu.dcache.cpu_side::sendTimingResp: hasPC? 1, PC = 4765082, hasContextId? 1, contextID = 0, Size = 8, time = 1406500, Addr = 3102510, Dir = 2, Cmd = 2, Data = 48b5b0
system.mem_ctrls::access() Cmd: ReadSharedReq, DataDir: 2, CmdDir: 2, Size: 64, addr: 4350040, PC: 4765108, time: 1407500
system.mem_ctrls::access() Cmd: ReadExReq, DataDir: 2, CmdDir: 2, Size: 64, addr: 4330310, PC: 4546859, time: 284000
system.cpu.dcache.cpu_side::sendTimingResp: hasPC? 1, PC = 4765108, hasContextId? 1, contextID = 0, Size = 8, time = 1407500, Addr = 4357040, Dir = 2, Cmd = 2, Data = 5
system.cpu.dcache.cpu_side::sendTimingResp: hasPC? 1, PC = 4546859, hasContextId? 1, contextID = 0, Size = 8, time = 284000, Addr = 4336310, Dir = 2, Cmd = 5, noData
system.cpu.dcache.cpu_side::recvTimingReq: hasPC? 1, PC = 4546866, hasData? 1, Data = 7fffffffed98, Size = 8, time = 352500, MemCmd: WriteReq, needsResponse? Y, addr = 4040500
system.cpu.dcache.cpu_side::recvTimingReq: hasPC? 1, PC = 4765512, hasData? 0, NoData, Size = 8, time = 1553000, MemCmd: ReadReq, needsResponse? Y, addr = 4357010
system.cpu.dcache.cpu_side::sendTimingResp: hasPC? 1, PC = 4765512, hasContextId? 1, contextID = 0, Size = 8, time = 1553000, Addr = 4357010, Dir = 2, Cmd = 2, Data = 400040
system.cpu.dcache.cpu_side::recvTimingReq: hasPC? 1, PC = 4765520, hasData? 0, NoData, Size = 8, time = 1554000, MemCmd: ReadReq, needsResponse? Y, addr = 4357020
system.cpu.dcache.cpu_side::sendTimingResp: hasPC? 1, PC = 4765520, hasContextId? 1, contextID = 0, Size = 8, time = 1554000, Addr = 4357020, Dir = 2, Cmd = 2, Data = 4
system.cpu.dcache.cpu_side::recvTimingReq: hasPC? 1, PC = 4765096, hasData? 0, NoData, Size = 8, time = 1561500, MemCmd: ReadReq, needsResponse? Y, addr = 4357030
system.cpu.dcache.cpu_side::recvTimingReq: hasPC? 1, PC = 4765082, hasData? 0, NoData, Size = 8, time = 1562000, MemCmd: ReadReq, needsResponse? Y, addr = 3102510
system.cpu.dcache.cpu_side::sendTimingResp: hasPC? 1, PC = 4765096, hasContextId? 1, contextID = 0, Size = 8, time = 1561500, Addr = 4357030, Dir = 2, Cmd = 2, Data = 38
system.cpu.dcache.cpu_side::recvTimingReq: hasPC? 1, PC = 4765108, hasData? 0, NoData, Size = 8, time = 1562500, MemCmd: ReadReq, needsResponse? Y, addr = 4357040
system.cpu.dcache.cpu_side::sendTimingResp: hasPC? 1, PC = 4765082, hasContextId? 1, contextID = 0, Size = 8, time = 1562000, Addr = 3102510, Dir = 2, Cmd = 2, Data = 48b5b0
system.cpu.dcache.cpu_side::sendTimingResp: hasPC? 1, PC = 4765108, hasContextId? 1, contextID = 0, Size = 8, time = 1562500, Addr = 4357040, Dir = 2, Cmd = 2, Data = 5
system.cpu.dcache.cpu_side::recvTimingReq: hasPC? 1, PC = 4765108, hasData? 0, NoData, Size = 8, time = 1570500, MemCmd: ReadReq, needsResponse? Y, addr = 4357040
system.cpu.dcache.cpu_side::sendTimingResp: hasPC? 1, PC = 4765108, hasContextId? 1, contextID = 0, Size = 8, time = 1570500, Addr = 4357040, Dir = 2, Cmd = 2, Data = 5
system.mem_ctrls::access() Cmd: ReadExReq, DataDir: 2, CmdDir: 2, Size: 64, addr: 4040500, PC: 4546866, time: 352500
system.cpu.dcache.cpu_side::recvTimingReq: hasPC? 1, PC = 4765082, hasData? 0, NoData, Size = 8, time = 1581000, MemCmd: ReadReq, needsResponse? Y, addr = 3102520
system.cpu.dcache.cpu_side::recvTimingReq: hasPC? 1, PC = 4765096, hasData? 0, NoData, Size = 8, time = 1581000, MemCmd: ReadReq, needsResponse? Y, addr = 4357050
system.cpu.dcache.cpu_side::recvTimingReq: hasPC? 1, PC = 4765108, hasData? 0, NoData, Size = 8, time = 1582000, MemCmd: ReadReq, needsResponse? Y, addr = 4357060
system.cpu.dcache.cpu_side::recvTimingReq: hasPC? 1, PC = 4546897, hasData? 0, NoData, Size = 4, time = 1591500, MemCmd: ReadReq, needsResponse? Y, addr = 4052150
system.cpu.dcache.cpu_side::sendTimingResp: hasPC? 1, PC = 4546866, hasContextId? 1, contextID = 0, Size = 8, time = 352500, Addr = 4040500, Dir = 2, Cmd = 5, noData
system.cpu.dcache.cpu_side::recvTimingReq: hasPC? 1, PC = 4546897, hasData? 0, NoData, Size = 4, time = 1621500, MemCmd: ReadReq, needsResponse? Y, addr = 4052150
system.cpu.dcache.cpu_side::recvTimingReq: hasPC? 1, PC = 4546892, hasData? 1, Data = 456151, Size = 8, time = 360500, MemCmd: WriteReq, needsResponse? Y, addr = 4355330
system.mem_ctrls::access() Cmd: ReadSharedReq, DataDir: 2, CmdDir: 2, Size: 64, addr: 3100520, PC: 4765082, time: 1581000
system.cpu.dcache.cpu_side::sendTimingResp: hasPC? 1, PC = 4546897, hasContextId? 1, contextID = 0, Size = 4, time = 1621500, Addr = 4052150, Dir = 2, Cmd = 2, Data = 0
system.mem_ctrls::access() Cmd: ReadSharedReq, DataDir: 2, CmdDir: 2, Size: 64, addr: 4350050, PC: 4765096, time: 1581000
system.mem_ctrls::access() Cmd: ReadSharedReq, DataDir: 2, CmdDir: 2, Size: 64, addr: 4350060, PC: 4765108, time: 1582000
system.mem_ctrls::access() Cmd: ReadExReq, DataDir: 2, CmdDir: 2, Size: 64, addr: 4350330, PC: 4546892, time: 360500
system.cpu.dcache.cpu_side::sendTimingResp: hasPC? 1, PC = 4765082, hasContextId? 1, contextID = 0, Size = 8, time = 1581000, Addr = 3102520, Dir = 2, Cmd = 2, Data = 48b728
system.cpu.dcache.cpu_side::recvTimingReq: hasPC? 1, PC = 4765480, hasData? 0, NoData, Size = 8, time = 1673000, MemCmd: ReadReq, needsResponse? Y, addr = 4357050
system.cpu.dcache.cpu_side::recvTimingReq: hasPC? 1, PC = 4765488, hasData? 0, NoData, Size = 8, time = 1674000, MemCmd: ReadReq, needsResponse? Y, addr = 4357060
system.cpu.dcache.cpu_side::recvTimingReq: hasPC? 1, PC = 4765512, hasData? 0, NoData, Size = 8, time = 1674000, MemCmd: ReadReq, needsResponse? Y, addr = 4357070
system.cpu.dcache.cpu_side::recvTimingReq: hasPC? 1, PC = 4765520, hasData? 0, NoData, Size = 8, time = 1675000, MemCmd: ReadReq, needsResponse? Y, addr = 4357100
system.cpu.dcache.cpu_side::sendTimingResp: hasPC? 1, PC = 4765096, hasContextId? 1, contextID = 0, Size = 8, time = 1581000, Addr = 4357050, Dir = 2, Cmd = 2, Data = 5
system.cpu.dcache.cpu_side::sendTimingResp: hasPC? 1, PC = 4765480, hasContextId? 1, contextID = 0, Size = 8, time = 1673000, Addr = 4357050, Dir = 2, Cmd = 2, Data = 5
system.cpu.dcache.cpu_side::sendTimingResp: hasPC? 1, PC = 4765108, hasContextId? 1, contextID = 0, Size = 8, time = 1582000, Addr = 4357060, Dir = 2, Cmd = 2, Data = 7
system.cpu.dcache.cpu_side::sendTimingResp: hasPC? 1, PC = 4765488, hasContextId? 1, contextID = 0, Size = 8, time = 1674000, Addr = 4357060, Dir = 2, Cmd = 2, Data = 7
system.cpu.dcache.cpu_side::sendTimingResp: hasPC? 1, PC = 4546892, hasContextId? 1, contextID = 0, Size = 8, time = 360500, Addr = 4355330, Dir = 2, Cmd = 5, noData
system.cpu.dcache.cpu_side::recvTimingReq: hasPC? 1, PC = 4764992, hasData? 1, Data = 0, Size = 8, time = 460000, MemCmd: WriteReq, needsResponse? Y, addr = 4355320
system.cpu.dcache.cpu_side::recvTimingReq: hasPC? 1, PC = 4765082, hasData? 0, NoData, Size = 8, time = 1699000, MemCmd: ReadReq, needsResponse? Y, addr = 3102540
system.cpu.dcache.cpu_side::recvTimingReq: hasPC? 1, PC = 4765096, hasData? 0, NoData, Size = 8, time = 1699000, MemCmd: ReadReq, needsResponse? Y, addr = 4357070
system.cpu.dcache.cpu_side::recvTimingReq: hasPC? 1, PC = 4765108, hasData? 0, NoData, Size = 8, time = 1700000, MemCmd: ReadReq, needsResponse? Y, addr = 4357100
system.cpu.dcache.cpu_side::recvTimingReq: hasPC? 1, PC = 4765216, hasData? 0, NoData, Size = 8, time = 1702500, MemCmd: ReadReq, needsResponse? Y, addr = 4355320
system.cpu.dcache.cpu_side::recvTimingReq: hasPC? 1, PC = 4765218, hasData? 0, NoData, Size = 8, time = 1703000, MemCmd: ReadReq, needsResponse? Y, addr = 4355330
system.mem_ctrls::access() Cmd: ReadSharedReq, DataDir: 2, CmdDir: 2, Size: 64, addr: 4350070, PC: 4765512, time: 1674000
system.mem_ctrls::access() Cmd: ReadExReq, DataDir: 2, CmdDir: 2, Size: 64, addr: 4350320, PC: 4764992, time: 460000
system.mem_ctrls::access() Cmd: ReadSharedReq, DataDir: 2, CmdDir: 2, Size: 64, addr: 3100540, PC: 4765082, time: 1699000
system.mem_ctrls::access() Cmd: ReadSharedReq, DataDir: 2, CmdDir: 2, Size: 64, addr: 4350100, PC: 4765108, time: 1700000
system.cpu.dcache.cpu_side::sendTimingResp: hasPC? 1, PC = 4765512, hasContextId? 1, contextID = 0, Size = 8, time = 1674000, Addr = 4357070, Dir = 2, Cmd = 2, Data = 0
system.cpu.dcache.cpu_side::recvTimingReq: hasPC? 1, PC = 4765216, hasData? 0, NoData, Size = 8, time = 1757500, MemCmd: ReadReq, needsResponse? Y, addr = 4355320
system.cpu.dcache.cpu_side::recvTimingReq: hasPC? 1, PC = 4765218, hasData? 0, NoData, Size = 8, time = 1757500, MemCmd: ReadReq, needsResponse? Y, addr = 4355330
system.cpu.dcache.cpu_side::sendTimingResp: hasPC? 1, PC = 4765096, hasContextId? 1, contextID = 0, Size = 8, time = 1699000, Addr = 4357070, Dir = 2, Cmd = 2, Data = 0
system.cpu.dcache.cpu_side::sendTimingResp: hasPC? 1, PC = 4765218, hasContextId? 1, contextID = 0, Size = 8, time = 1757500, Addr = 4355330, Dir = 2, Cmd = 2, Data = 456151
system.cpu.dcache.cpu_side::recvTimingReq: hasPC? 1, PC = 4546897, hasData? 0, NoData, Size = 4, time = 1764500, MemCmd: ReadReq, needsResponse? Y, addr = 4052150
system.cpu.dcache.cpu_side::sendTimingResp: hasPC? 1, PC = 4546897, hasContextId? 1, contextID = 0, Size = 4, time = 1764500, Addr = 4052150, Dir = 2, Cmd = 2, Data = 0
system.cpu.dcache.cpu_side::sendTimingResp: hasPC? 1, PC = 4764992, hasContextId? 1, contextID = 0, Size = 8, time = 460000, Addr = 4355320, Dir = 2, Cmd = 5, noData
system.cpu.dcache.cpu_side::recvTimingReq: hasPC? 1, PC = 4764997, hasData? 1, Data = 0, Size = 8, time = 460500, MemCmd: WriteReq, needsResponse? Y, addr = 4355310
system.cpu.dcache.cpu_side::sendTimingResp: hasPC? 1, PC = 4765216, hasContextId? 1, contextID = 0, Size = 8, time = 1757500, Addr = 4355320, Dir = 2, Cmd = 2, Data = 0
system.cpu.dcache.cpu_side::sendTimingResp: hasPC? 1, PC = 4765082, hasContextId? 1, contextID = 0, Size = 8, time = 1699000, Addr = 3102540, Dir = 2, Cmd = 2, Data = 48b5b0
system.cpu.dcache.cpu_side::sendTimingResp: hasPC? 1, PC = 4765108, hasContextId? 1, contextID = 0, Size = 8, time = 1700000, Addr = 4357100, Dir = 2, Cmd = 2, Data = 8
system.cpu.dcache.cpu_side::recvTimingReq: hasPC? 1, PC = 4765108, hasData? 0, NoData, Size = 8, time = 1799000, MemCmd: ReadReq, needsResponse? Y, addr = 4357100
system.cpu.dcache.cpu_side::sendTimingResp: hasPC? 1, PC = 4765108, hasContextId? 1, contextID = 0, Size = 8, time = 1799000, Addr = 4357100, Dir = 2, Cmd = 2, Data = 8
system.cpu.dcache.cpu_side::recvTimingReq: hasPC? 1, PC = 4765214, hasData? 0, NoData, Size = 8, time = 1801500, MemCmd: ReadReq, needsResponse? Y, addr = 4355310
system.cpu.dcache.cpu_side::recvTimingReq: hasPC? 1, PC = 4765082, hasData? 0, NoData, Size = 8, time = 1808500, MemCmd: ReadReq, needsResponse? Y, addr = 3102550
system.cpu.dcache.cpu_side::recvTimingReq: hasPC? 1, PC = 4765096, hasData? 0, NoData, Size = 8, time = 1808500, MemCmd: ReadReq, needsResponse? Y, addr = 4357110
system.cpu.dcache.cpu_side::recvTimingReq: hasPC? 1, PC = 4765108, hasData? 0, NoData, Size = 8, time = 1809500, MemCmd: ReadReq, needsResponse? Y, addr = 4357120
system.mem_ctrls::access() Cmd: ReadExReq, DataDir: 2, CmdDir: 2, Size: 64, addr: 4350310, PC: 4764997, time: 460500
system.cpu.dcache.cpu_side::recvTimingReq: hasPC? 1, PC = 4765214, hasData? 0, NoData, Size = 8, time = 1817000, MemCmd: ReadReq, needsResponse? Y, addr = 4355310
system.cpu.dcache.cpu_side::recvTimingReq: hasPC? 1, PC = 4765216, hasData? 0, NoData, Size = 8, time = 1817500, MemCmd: ReadReq, needsResponse? Y, addr = 4355320
system.cpu.dcache.cpu_side::recvTimingReq: hasPC? 1, PC = 4765218, hasData? 0, NoData, Size = 8, time = 1818000, MemCmd: ReadReq, needsResponse? Y, addr = 4355330
system.cpu.dcache.cpu_side::sendTimingResp: hasPC? 1, PC = 4764997, hasContextId? 1, contextID = 0, Size = 8, time = 460500, Addr = 4355310, Dir = 2, Cmd = 5, noData
system.cpu.dcache.cpu_side::recvTimingReq: hasPC? 1, PC = 4765214, hasData? 0, NoData, Size = 8, time = 1858500, MemCmd: ReadReq, needsResponse? Y, addr = 4355310
system.cpu.dcache.cpu_side::recvTimingReq: hasPC? 1, PC = 4765216, hasData? 0, NoData, Size = 8, time = 1858500, MemCmd: ReadReq, needsResponse? Y, addr = 4355320
system.cpu.dcache.cpu_side::recvTimingReq: hasPC? 1, PC = 4765218, hasData? 0, NoData, Size = 8, time = 1858500, MemCmd: ReadReq, needsResponse? Y, addr = 4355330
system.cpu.dcache.cpu_side::recvTimingReq: hasPC? 1, PC = 4765002, hasData? 1, Data = 456aa0, Size = 8, time = 461000, MemCmd: WriteReq, needsResponse? Y, addr = 4355300
system.cpu.dcache.cpu_side::sendTimingResp: hasPC? 1, PC = 4765214, hasContextId? 1, contextID = 0, Size = 8, time = 1801500, Addr = 4355310, Dir = 2, Cmd = 2, Data = 0
system.cpu.dcache.cpu_side::sendTimingResp: hasPC? 1, PC = 4765214, hasContextId? 1, contextID = 0, Size = 8, time = 1858500, Addr = 4355310, Dir = 2, Cmd = 2, Data = 0
system.cpu.dcache.cpu_side::sendTimingResp: hasPC? 1, PC = 4765216, hasContextId? 1, contextID = 0, Size = 8, time = 1858500, Addr = 4355320, Dir = 2, Cmd = 2, Data = 0
system.cpu.dcache.cpu_side::sendTimingResp: hasPC? 1, PC = 4765218, hasContextId? 1, contextID = 0, Size = 8, time = 1858500, Addr = 4355330, Dir = 2, Cmd = 2, Data = 456151
system.cpu.dcache.cpu_side::recvTimingReq: hasPC? 1, PC = 4546897, hasData? 0, NoData, Size = 4, time = 1866000, MemCmd: ReadReq, needsResponse? Y, addr = 4052150
system.mem_ctrls::access() Cmd: ReadSharedReq, DataDir: 2, CmdDir: 2, Size: 64, addr: 3100550, PC: 4765082, time: 1808500
system.mem_ctrls::access() Cmd: ReadSharedReq, DataDir: 2, CmdDir: 2, Size: 64, addr: 4350110, PC: 4765096, time: 1808500
system.cpu.dcache.cpu_side::sendTimingResp: hasPC? 1, PC = 4765082, hasContextId? 1, contextID = 0, Size = 8, time = 1808500, Addr = 3102550, Dir = 2, Cmd = 2, Data = 48b5b0
system.cpu.dcache.cpu_side::recvTimingReq: hasPC? 1, PC = 4546897, hasData? 0, NoData, Size = 4, time = 1921500, MemCmd: ReadReq, needsResponse? Y, addr = 4052150
system.cpu.dcache.cpu_side::sendTimingResp: hasPC? 1, PC = 4546897, hasContextId? 1, contextID = 0, Size = 4, time = 1921500, Addr = 4052150, Dir = 2, Cmd = 2, Data = 0
system.mem_ctrls::access() Cmd: ReadSharedReq, DataDir: 2, CmdDir: 2, Size: 64, addr: 4350120, PC: 4765108, time: 1809500
system.cpu.dcache.cpu_side::sendTimingResp: hasPC? 1, PC = 4765096, hasContextId? 1, contextID = 0, Size = 8, time = 1808500, Addr = 4357110, Dir = 2, Cmd = 2, Data = 0
system.cpu.dcache.cpu_side::recvTimingReq: hasPC? 1, PC = 4765108, hasData? 0, NoData, Size = 8, time = 1935000, MemCmd: ReadReq, needsResponse? Y, addr = 4357120
system.cpu.dcache.cpu_side::recvTimingReq: hasPC? 1, PC = 4765213, hasData? 0, NoData, Size = 8, time = 1936500, MemCmd: ReadReq, needsResponse? Y, addr = 4355300
system.cpu.dcache.cpu_side::recvTimingReq: hasPC? 1, PC = 4765214, hasData? 0, NoData, Size = 8, time = 1937000, MemCmd: ReadReq, needsResponse? Y, addr = 4355310
system.mem_ctrls::access() Cmd: ReadExReq, DataDir: 2, CmdDir: 2, Size: 64, addr: 4350300, PC: 4765002, time: 461000
system.cpu.dcache.cpu_side::recvTimingReq: hasPC? 1, PC = 4765216, hasData? 0, NoData, Size = 8, time = 1937500, MemCmd: ReadReq, needsResponse? Y, addr = 4355320
system.cpu.dcache.cpu_side::sendTimingResp: hasPC? 1, PC = 4765214, hasContextId? 1, contextID = 0, Size = 8, time = 1937000, Addr = 4355310, Dir = 2, Cmd = 2, Data = 0
system.cpu.dcache.cpu_side::recvTimingReq: hasPC? 1, PC = 4765218, hasData? 0, NoData, Size = 8, time = 1938000, MemCmd: ReadReq, needsResponse? Y, addr = 4355330
system.cpu.dcache.cpu_side::sendTimingResp: hasPC? 1, PC = 4765216, hasContextId? 1, contextID = 0, Size = 8, time = 1937500, Addr = 4355320, Dir = 2, Cmd = 2, Data = 0
system.cpu.dcache.cpu_side::sendTimingResp: hasPC? 1, PC = 4765218, hasContextId? 1, contextID = 0, Size = 8, time = 1938000, Addr = 4355330, Dir = 2, Cmd = 2, Data = 456151
system.cpu.dcache.cpu_side::recvTimingReq: hasPC? 1, PC = 4546897, hasData? 0, NoData, Size = 4, time = 1945000, MemCmd: ReadReq, needsResponse? Y, addr = 4052150
system.cpu.dcache.cpu_side::sendTimingResp: hasPC? 1, PC = 4546897, hasContextId? 1, contextID = 0, Size = 4, time = 1945000, Addr = 4052150, Dir = 2, Cmd = 2, Data = 0
system.cpu.dcache.cpu_side::sendTimingResp: hasPC? 1, PC = 4765108, hasContextId? 1, contextID = 0, Size = 8, time = 1809500, Addr = 4357120, Dir = 2, Cmd = 2, Data = 9
system.cpu.dcache.cpu_side::sendTimingResp: hasPC? 1, PC = 4765108, hasContextId? 1, contextID = 0, Size = 8, time = 1935000, Addr = 4357120, Dir = 2, Cmd = 2, Data = 9
system.cpu.dcache.cpu_side::sendTimingResp: hasPC? 1, PC = 4765002, hasContextId? 1, contextID = 0, Size = 8, time = 461000, Addr = 4355300, Dir = 2, Cmd = 5, noData
system.cpu.dcache.cpu_side::recvTimingReq: hasPC? 1, PC = 4765003, hasData? 1, Data = 456ae0, Size = 8, time = 461500, MemCmd: WriteReq, needsResponse? Y, addr = 4355270
system.cpu.dcache.cpu_side::sendTimingResp: hasPC? 1, PC = 4765213, hasContextId? 1, contextID = 0, Size = 8, time = 1936500, Addr = 4355300, Dir = 2, Cmd = 2, Data = 456aa0
system.cpu.dcache.cpu_side::recvTimingReq: hasPC? 1, PC = 4765082, hasData? 0, NoData, Size = 8, time = 1984500, MemCmd: ReadReq, needsResponse? Y, addr = 3102560
system.cpu.dcache.cpu_side::recvTimingReq: hasPC? 1, PC = 4765096, hasData? 0, NoData, Size = 8, time = 1984500, MemCmd: ReadReq, needsResponse? Y, addr = 4357130
system.cpu.dcache.cpu_side::recvTimingReq: hasPC? 1, PC = 4765108, hasData? 0, NoData, Size = 8, time = 1985500, MemCmd: ReadReq, needsResponse? Y, addr = 4357140
system.cpu.dcache.cpu_side::recvTimingReq: hasPC? 1, PC = 4765212, hasData? 0, NoData, Size = 8, time = 1987000, MemCmd: ReadReq, needsResponse? Y, addr = 4355270
system.cpu.dcache.cpu_side::recvTimingReq: hasPC? 1, PC = 4765212, hasData? 0, NoData, Size = 8, time = 1992000, MemCmd: ReadReq, needsResponse? Y, addr = 4355270
system.cpu.dcache.cpu_side::recvTimingReq: hasPC? 1, PC = 4765213, hasData? 0, NoData, Size = 8, time = 1992500, MemCmd: ReadReq, needsResponse? Y, addr = 4355300
system.cpu.dcache.cpu_side::recvTimingReq: hasPC? 1, PC = 4765214, hasData? 0, NoData, Size = 8, time = 1993000, MemCmd: ReadReq, needsResponse? Y, addr = 4355310
system.cpu.dcache.cpu_side::recvTimingReq: hasPC? 1, PC = 4765216, hasData? 0, NoData, Size = 8, time = 1993500, MemCmd: ReadReq, needsResponse? Y, addr = 4355320
system.cpu.dcache.cpu_side::recvTimingReq: hasPC? 1, PC = 4765218, hasData? 0, NoData, Size = 8, time = 1994000, MemCmd: ReadReq, needsResponse? Y, addr = 4355330
system.mem_ctrls::access() Cmd: ReadExReq, DataDir: 2, CmdDir: 2, Size: 64, addr: 4350270, PC: 4765003, time: 461500
system.mem_ctrls::access() Cmd: ReadSharedReq, DataDir: 2, CmdDir: 2, Size: 64, addr: 3100560, PC: 4765082, time: 1984500
system.mem_ctrls::access() Cmd: ReadSharedReq, DataDir: 2, CmdDir: 2, Size: 64, addr: 4350130, PC: 4765096, time: 1984500
system.mem_ctrls::access() Cmd: ReadSharedReq, DataDir: 2, CmdDir: 2, Size: 64, addr: 4350140, PC: 4765108, time: 1985500
system.cpu.dcache.cpu_side::sendTimingResp: hasPC? 1, PC = 4765003, hasContextId? 1, contextID = 0, Size = 8, time = 461500, Addr = 4355270, Dir = 2, Cmd = 5, noData
system.cpu.dcache.cpu_side::recvTimingReq: hasPC? 1, PC = 4765212, hasData? 0, NoData, Size = 8, time = 2062500, MemCmd: ReadReq, needsResponse? Y, addr = 4355270
system.cpu.dcache.cpu_side::recvTimingReq: hasPC? 1, PC = 4765213, hasData? 0, NoData, Size = 8, time = 2062500, MemCmd: ReadReq, needsResponse? Y, addr = 4355300
system.cpu.dcache.cpu_side::recvTimingReq: hasPC? 1, PC = 4765214, hasData? 0, NoData, Size = 8, time = 2062500, MemCmd: ReadReq, needsResponse? Y, addr = 4355310
system.cpu.dcache.cpu_side::recvTimingReq: hasPC? 1, PC = 4765216, hasData? 0, NoData, Size = 8, time = 2062500, MemCmd: ReadReq, needsResponse? Y, addr = 4355320
system.cpu.dcache.cpu_side::recvTimingReq: hasPC? 1, PC = 4765218, hasData? 0, NoData, Size = 8, time = 2063000, MemCmd: ReadReq, needsResponse? Y, addr = 4355330
system.cpu.dcache.cpu_side::sendTimingResp: hasPC? 1, PC = 4765212, hasContextId? 1, contextID = 0, Size = 8, time = 2062500, Addr = 4355270, Dir = 2, Cmd = 2, Data = 456ae0
system.cpu.dcache.cpu_side::sendTimingResp: hasPC? 1, PC = 4765213, hasContextId? 1, contextID = 0, Size = 8, time = 2062500, Addr = 4355300, Dir = 2, Cmd = 2, Data = 456aa0
system.cpu.dcache.cpu_side::sendTimingResp: hasPC? 1, PC = 4765214, hasContextId? 1, contextID = 0, Size = 8, time = 2062500, Addr = 4355310, Dir = 2, Cmd = 2, Data = 0
system.cpu.dcache.cpu_side::sendTimingResp: hasPC? 1, PC = 4765216, hasContextId? 1, contextID = 0, Size = 8, time = 2062500, Addr = 4355320, Dir = 2, Cmd = 2, Data = 0
system.cpu.dcache.cpu_side::sendTimingResp: hasPC? 1, PC = 4765218, hasContextId? 1, contextID = 0, Size = 8, time = 2063000, Addr = 4355330, Dir = 2, Cmd = 2, Data = 456151
system.cpu.dcache.cpu_side::recvTimingReq: hasPC? 1, PC = 4546897, hasData? 0, NoData, Size = 4, time = 2070500, MemCmd: ReadReq, needsResponse? Y, addr = 4052150
system.cpu.dcache.cpu_side::sendTimingResp: hasPC? 1, PC = 4546897, hasContextId? 1, contextID = 0, Size = 4, time = 2070500, Addr = 4052150, Dir = 2, Cmd = 2, Data = 0
system.cpu.dcache.cpu_side::sendTimingResp: hasPC? 1, PC = 4765082, hasContextId? 1, contextID = 0, Size = 8, time = 1984500, Addr = 3102560, Dir = 2, Cmd = 2, Data = 48b5b0
system.cpu.dcache.cpu_side::sendTimingResp: hasPC? 1, PC = 4765096, hasContextId? 1, contextID = 0, Size = 8, time = 1984500, Addr = 4357130, Dir = 2, Cmd = 2, Data = 4001c0
system.cpu.dcache.cpu_side::recvTimingReq: hasPC? 1, PC = 4765108, hasData? 0, NoData, Size = 8, time = 2088000, MemCmd: ReadReq, needsResponse? Y, addr = 4357140
system.cpu.dcache.cpu_side::recvTimingReq: hasPC? 1, PC = 4765212, hasData? 0, NoData, Size = 8, time = 2089500, MemCmd: ReadReq, needsResponse? Y, addr = 4355270
system.cpu.dcache.cpu_side::recvTimingReq: hasPC? 1, PC = 4765213, hasData? 0, NoData, Size = 8, time = 2089500, MemCmd: ReadReq, needsResponse? Y, addr = 4355300
system.cpu.dcache.cpu_side::recvTimingReq: hasPC? 1, PC = 4765214, hasData? 0, NoData, Size = 8, time = 2090000, MemCmd: ReadReq, needsResponse? Y, addr = 4355310
system.cpu.dcache.cpu_side::sendTimingResp: hasPC? 1, PC = 4765212, hasContextId? 1, contextID = 0, Size = 8, time = 2089500, Addr = 4355270, Dir = 2, Cmd = 2, Data = 456ae0
system.cpu.dcache.cpu_side::recvTimingReq: hasPC? 1, PC = 4765216, hasData? 0, NoData, Size = 8, time = 2090500, MemCmd: ReadReq, needsResponse? Y, addr = 4355320
system.cpu.dcache.cpu_side::sendTimingResp: hasPC? 1, PC = 4765213, hasContextId? 1, contextID = 0, Size = 8, time = 2089500, Addr = 4355300, Dir = 2, Cmd = 2, Data = 456aa0
system.cpu.dcache.cpu_side::sendTimingResp: hasPC? 1, PC = 4765214, hasContextId? 1, contextID = 0, Size = 8, time = 2090000, Addr = 4355310, Dir = 2, Cmd = 2, Data = 0
system.cpu.dcache.cpu_side::recvTimingReq: hasPC? 1, PC = 4765218, hasData? 0, NoData, Size = 8, time = 2091000, MemCmd: ReadReq, needsResponse? Y, addr = 4355330
system.cpu.dcache.cpu_side::sendTimingResp: hasPC? 1, PC = 4765216, hasContextId? 1, contextID = 0, Size = 8, time = 2090500, Addr = 4355320, Dir = 2, Cmd = 2, Data = 0
system.cpu.dcache.cpu_side::sendTimingResp: hasPC? 1, PC = 4765218, hasContextId? 1, contextID = 0, Size = 8, time = 2091000, Addr = 4355330, Dir = 2, Cmd = 2, Data = 456151
system.cpu.dcache.cpu_side::sendTimingResp: hasPC? 1, PC = 4765108, hasContextId? 1, contextID = 0, Size = 8, time = 1985500, Addr = 4357140, Dir = 2, Cmd = 2, Data = b
system.cpu.dcache.cpu_side::sendTimingResp: hasPC? 1, PC = 4765108, hasContextId? 1, contextID = 0, Size = 8, time = 2088000, Addr = 4357140, Dir = 2, Cmd = 2, Data = b
system.cpu.dcache.cpu_side::recvTimingReq: hasPC? 1, PC = 4546897, hasData? 0, NoData, Size = 4, time = 2098000, MemCmd: ReadReq, needsResponse? Y, addr = 4052150
system.cpu.dcache.cpu_side::sendTimingResp: hasPC? 1, PC = 4546897, hasContextId? 1, contextID = 0, Size = 4, time = 2098000, Addr = 4052150, Dir = 2, Cmd = 2, Data = 0
system.cpu.dcache.cpu_side::recvTimingReq: hasPC? 1, PC = 4765082, hasData? 0, NoData, Size = 8, time = 2107500, MemCmd: ReadReq, needsResponse? Y, addr = 3102600
system.cpu.dcache.cpu_side::recvTimingReq: hasPC? 1, PC = 4765096, hasData? 0, NoData, Size = 8, time = 2107500, MemCmd: ReadReq, needsResponse? Y, addr = 4357150
system.cpu.dcache.cpu_side::recvTimingReq: hasPC? 1, PC = 4765108, hasData? 0, NoData, Size = 8, time = 2108500, MemCmd: ReadReq, needsResponse? Y, addr = 4357160
system.cpu.dcache.cpu_side::recvTimingReq: hasPC? 1, PC = 4765212, hasData? 0, NoData, Size = 8, time = 2110000, MemCmd: ReadReq, needsResponse? Y, addr = 4355270
system.cpu.dcache.cpu_side::sendTimingResp: hasPC? 1, PC = 4765212, hasContextId? 1, contextID = 0, Size = 8, time = 2110000, Addr = 4355270, Dir = 2, Cmd = 2, Data = 456ae0
system.cpu.dcache.cpu_side::recvTimingReq: hasPC? 1, PC = 4765212, hasData? 0, NoData, Size = 8, time = 2115000, MemCmd: ReadReq, needsResponse? Y, addr = 4355270
system.cpu.dcache.cpu_side::recvTimingReq: hasPC? 1, PC = 4765213, hasData? 0, NoData, Size = 8, time = 2115500, MemCmd: ReadReq, needsResponse? Y, addr = 4355300
system.cpu.dcache.cpu_side::sendTimingResp: hasPC? 1, PC = 4765212, hasContextId? 1, contextID = 0, Size = 8, time = 2115000, Addr = 4355270, Dir = 2, Cmd = 2, Data = 456ae0
system.cpu.dcache.cpu_side::recvTimingReq: hasPC? 1, PC = 4765214, hasData? 0, NoData, Size = 8, time = 2116000, MemCmd: ReadReq, needsResponse? Y, addr = 4355310
system.cpu.dcache.cpu_side::sendTimingResp: hasPC? 1, PC = 4765213, hasContextId? 1, contextID = 0, Size = 8, time = 2115500, Addr = 4355300, Dir = 2, Cmd = 2, Data = 456aa0
system.cpu.dcache.cpu_side::recvTimingReq: hasPC? 1, PC = 4765216, hasData? 0, NoData, Size = 8, time = 2116500, MemCmd: ReadReq, needsResponse? Y, addr = 4355320
system.cpu.dcache.cpu_side::sendTimingResp: hasPC? 1, PC = 4765214, hasContextId? 1, contextID = 0, Size = 8, time = 2116000, Addr = 4355310, Dir = 2, Cmd = 2, Data = 0
system.cpu.dcache.cpu_side::recvTimingReq: hasPC? 1, PC = 4765218, hasData? 0, NoData, Size = 8, time = 2117000, MemCmd: ReadReq, needsResponse? Y, addr = 4355330
system.cpu.dcache.cpu_side::sendTimingResp: hasPC? 1, PC = 4765216, hasContextId? 1, contextID = 0, Size = 8, time = 2116500, Addr = 4355320, Dir = 2, Cmd = 2, Data = 0
system.cpu.dcache.cpu_side::sendTimingResp: hasPC? 1, PC = 4765218, hasContextId? 1, contextID = 0, Size = 8, time = 2117000, Addr = 4355330, Dir = 2, Cmd = 2, Data = 456151
system.cpu.dcache.cpu_side::recvTimingReq: hasPC? 1, PC = 4546897, hasData? 0, NoData, Size = 4, time = 2124000, MemCmd: ReadReq, needsResponse? Y, addr = 4052150
system.cpu.dcache.cpu_side::sendTimingResp: hasPC? 1, PC = 4546897, hasContextId? 1, contextID = 0, Size = 4, time = 2124000, Addr = 4052150, Dir = 2, Cmd = 2, Data = 0
system.mem_ctrls::access() Cmd: ReadSharedReq, DataDir: 2, CmdDir: 2, Size: 64, addr: 3100600, PC: 4765082, time: 2107500
system.mem_ctrls::access() Cmd: ReadSharedReq, DataDir: 2, CmdDir: 2, Size: 64, addr: 4350150, PC: 4765096, time: 2107500
system.mem_ctrls::access() Cmd: ReadSharedReq, DataDir: 2, CmdDir: 2, Size: 64, addr: 4350160, PC: 4765108, time: 2108500
system.cpu.dcache.cpu_side::sendTimingResp: hasPC? 1, PC = 4765082, hasContextId? 1, contextID = 0, Size = 8, time = 2107500, Addr = 3102600, Dir = 2, Cmd = 2, Data = 48b708
system.cpu.dcache.cpu_side::recvTimingReq: hasPC? 1, PC = 4765448, hasData? 0, NoData, Size = 4, time = 2196000, MemCmd: ReadReq, needsResponse? Y, addr = 4357150
system.cpu.dcache.cpu_side::recvTimingReq: hasPC? 1, PC = 4765458, hasData? 0, NoData, Size = 8, time = 2197000, MemCmd: ReadReq, needsResponse? Y, addr = 4357160
system.cpu.dcache.cpu_side::recvTimingReq: hasPC? 1, PC = 4765480, hasData? 0, NoData, Size = 8, time = 2197000, MemCmd: ReadReq, needsResponse? Y, addr = 4357170
system.cpu.dcache.cpu_side::sendTimingResp: hasPC? 1, PC = 4765096, hasContextId? 1, contextID = 0, Size = 8, time = 2107500, Addr = 4357150, Dir = 2, Cmd = 2, Data = 64
system.cpu.dcache.cpu_side::sendTimingResp: hasPC? 1, PC = 4765448, hasContextId? 1, contextID = 0, Size = 4, time = 2196000, Addr = 4357150, Dir = 2, Cmd = 2, Data = 64
system.cpu.dcache.cpu_side::recvTimingReq: hasPC? 1, PC = 4765212, hasData? 0, NoData, Size = 8, time = 2206000, MemCmd: ReadReq, needsResponse? Y, addr = 4355270
system.cpu.dcache.cpu_side::sendTimingResp: hasPC? 1, PC = 4765212, hasContextId? 1, contextID = 0, Size = 8, time = 2206000, Addr = 4355270, Dir = 2, Cmd = 2, Data = 456ae0
system.cpu.dcache.cpu_side::sendTimingResp: hasPC? 1, PC = 4765108, hasContextId? 1, contextID = 0, Size = 8, time = 2108500, Addr = 4357160, Dir = 2, Cmd = 2, Data = c
system.cpu.dcache.cpu_side::sendTimingResp: hasPC? 1, PC = 4765458, hasContextId? 1, contextID = 0, Size = 8, time = 2197000, Addr = 4357160, Dir = 2, Cmd = 2, Data = c
system.cpu.dcache.cpu_side::recvTimingReq: hasPC? 1, PC = 4765212, hasData? 0, NoData, Size = 8, time = 2210500, MemCmd: ReadReq, needsResponse? Y, addr = 4355270
system.cpu.dcache.cpu_side::sendTimingResp: hasPC? 1, PC = 4765212, hasContextId? 1, contextID = 0, Size = 8, time = 2210500, Addr = 4355270, Dir = 2, Cmd = 2, Data = 456ae0
system.cpu.dcache.cpu_side::recvTimingReq: hasPC? 1, PC = 4765082, hasData? 0, NoData, Size = 8, time = 2220500, MemCmd: ReadReq, needsResponse? Y, addr = 3102610
system.cpu.dcache.cpu_side::recvTimingReq: hasPC? 1, PC = 4765096, hasData? 0, NoData, Size = 8, time = 2220500, MemCmd: ReadReq, needsResponse? Y, addr = 4357170
system.cpu.dcache.cpu_side::recvTimingReq: hasPC? 1, PC = 4765108, hasData? 0, NoData, Size = 8, time = 2221500, MemCmd: ReadReq, needsResponse? Y, addr = 4357200
system.cpu.dcache.cpu_side::recvTimingReq: hasPC? 1, PC = 4765212, hasData? 0, NoData, Size = 8, time = 2222500, MemCmd: ReadReq, needsResponse? Y, addr = 4355270
system.cpu.dcache.cpu_side::recvTimingReq: hasPC? 1, PC = 4765213, hasData? 0, NoData, Size = 8, time = 2223000, MemCmd: ReadReq, needsResponse? Y, addr = 4355300
system.cpu.dcache.cpu_side::sendTimingResp: hasPC? 1, PC = 4765212, hasContextId? 1, contextID = 0, Size = 8, time = 2222500, Addr = 4355270, Dir = 2, Cmd = 2, Data = 456ae0
system.cpu.dcache.cpu_side::recvTimingReq: hasPC? 1, PC = 4765214, hasData? 0, NoData, Size = 8, time = 2223500, MemCmd: ReadReq, needsResponse? Y, addr = 4355310
system.cpu.dcache.cpu_side::sendTimingResp: hasPC? 1, PC = 4765213, hasContextId? 1, contextID = 0, Size = 8, time = 2223000, Addr = 4355300, Dir = 2, Cmd = 2, Data = 456aa0
system.cpu.dcache.cpu_side::recvTimingReq: hasPC? 1, PC = 4765216, hasData? 0, NoData, Size = 8, time = 2224000, MemCmd: ReadReq, needsResponse? Y, addr = 4355320
system.cpu.dcache.cpu_side::sendTimingResp: hasPC? 1, PC = 4765214, hasContextId? 1, contextID = 0, Size = 8, time = 2223500, Addr = 4355310, Dir = 2, Cmd = 2, Data = 0
system.cpu.dcache.cpu_side::recvTimingReq: hasPC? 1, PC = 4765218, hasData? 0, NoData, Size = 8, time = 2224500, MemCmd: ReadReq, needsResponse? Y, addr = 4355330
system.cpu.dcache.cpu_side::sendTimingResp: hasPC? 1, PC = 4765216, hasContextId? 1, contextID = 0, Size = 8, time = 2224000, Addr = 4355320, Dir = 2, Cmd = 2, Data = 0
system.cpu.dcache.cpu_side::sendTimingResp: hasPC? 1, PC = 4765218, hasContextId? 1, contextID = 0, Size = 8, time = 2224500, Addr = 4355330, Dir = 2, Cmd = 2, Data = 456151
system.cpu.dcache.cpu_side::recvTimingReq: hasPC? 1, PC = 4546897, hasData? 0, NoData, Size = 4, time = 2231500, MemCmd: ReadReq, needsResponse? Y, addr = 4052150
system.cpu.dcache.cpu_side::sendTimingResp: hasPC? 1, PC = 4546897, hasContextId? 1, contextID = 0, Size = 4, time = 2231500, Addr = 4052150, Dir = 2, Cmd = 2, Data = 0
system.mem_ctrls::access() Cmd: ReadSharedReq, DataDir: 2, CmdDir: 2, Size: 64, addr: 4350170, PC: 4765480, time: 2197000
system.mem_ctrls::access() Cmd: ReadSharedReq, DataDir: 2, CmdDir: 2, Size: 64, addr: 3100610, PC: 4765082, time: 2220500
system.mem_ctrls::access() Cmd: ReadSharedReq, DataDir: 2, CmdDir: 2, Size: 64, addr: 4350200, PC: 4765108, time: 2221500
system.cpu.dcache.cpu_side::sendTimingResp: hasPC? 1, PC = 4765480, hasContextId? 1, contextID = 0, Size = 8, time = 2197000, Addr = 4357170, Dir = 2, Cmd = 2, Data = 64
system.cpu.dcache.cpu_side::sendTimingResp: hasPC? 1, PC = 4765096, hasContextId? 1, contextID = 0, Size = 8, time = 2220500, Addr = 4357170, Dir = 2, Cmd = 2, Data = 64
system.cpu.dcache.cpu_side::sendTimingResp: hasPC? 1, PC = 4765082, hasContextId? 1, contextID = 0, Size = 8, time = 2220500, Addr = 3102610, Dir = 2, Cmd = 2, Data = 48b6e8
system.cpu.dcache.cpu_side::sendTimingResp: hasPC? 1, PC = 4765108, hasContextId? 1, contextID = 0, Size = 8, time = 2221500, Addr = 4357200, Dir = 2, Cmd = 2, Data = d
system.cpu.dcache.cpu_side::recvTimingReq: hasPC? 1, PC = 4765416, hasData? 0, NoData, Size = 4, time = 2312000, MemCmd: ReadReq, needsResponse? Y, addr = 4357170
system.cpu.dcache.cpu_side::sendTimingResp: hasPC? 1, PC = 4765416, hasContextId? 1, contextID = 0, Size = 4, time = 2312000, Addr = 4357170, Dir = 2, Cmd = 2, Data = 64
system.cpu.dcache.cpu_side::recvTimingReq: hasPC? 1, PC = 4765426, hasData? 0, NoData, Size = 8, time = 2313000, MemCmd: ReadReq, needsResponse? Y, addr = 4357200
system.cpu.dcache.cpu_side::recvTimingReq: hasPC? 1, PC = 4765448, hasData? 0, NoData, Size = 4, time = 2313000, MemCmd: ReadReq, needsResponse? Y, addr = 4357210
system.cpu.dcache.cpu_side::sendTimingResp: hasPC? 1, PC = 4765426, hasContextId? 1, contextID = 0, Size = 8, time = 2313000, Addr = 4357200, Dir = 2, Cmd = 2, Data = d
system.cpu.dcache.cpu_side::recvTimingReq: hasPC? 1, PC = 4765082, hasData? 0, NoData, Size = 8, time = 2322000, MemCmd: ReadReq, needsResponse? Y, addr = 3102620
system.cpu.dcache.cpu_side::recvTimingReq: hasPC? 1, PC = 4765096, hasData? 0, NoData, Size = 8, time = 2322000, MemCmd: ReadReq, needsResponse? Y, addr = 4357210
system.cpu.dcache.cpu_side::recvTimingReq: hasPC? 1, PC = 4765108, hasData? 0, NoData, Size = 8, time = 2323000, MemCmd: ReadReq, needsResponse? Y, addr = 4357220
system.cpu.dcache.cpu_side::recvTimingReq: hasPC? 1, PC = 4765212, hasData? 0, NoData, Size = 8, time = 2324000, MemCmd: ReadReq, needsResponse? Y, addr = 4355270
system.cpu.dcache.cpu_side::recvTimingReq: hasPC? 1, PC = 4765213, hasData? 0, NoData, Size = 8, time = 2324500, MemCmd: ReadReq, needsResponse? Y, addr = 4355300
system.cpu.dcache.cpu_side::sendTimingResp: hasPC? 1, PC = 4765212, hasContextId? 1, contextID = 0, Size = 8, time = 2324000, Addr = 4355270, Dir = 2, Cmd = 2, Data = 456ae0
system.cpu.dcache.cpu_side::recvTimingReq: hasPC? 1, PC = 4765214, hasData? 0, NoData, Size = 8, time = 2325000, MemCmd: ReadReq, needsResponse? Y, addr = 4355310
system.cpu.dcache.cpu_side::sendTimingResp: hasPC? 1, PC = 4765213, hasContextId? 1, contextID = 0, Size = 8, time = 2324500, Addr = 4355300, Dir = 2, Cmd = 2, Data = 456aa0
system.cpu.dcache.cpu_side::recvTimingReq: hasPC? 1, PC = 4765216, hasData? 0, NoData, Size = 8, time = 2325500, MemCmd: ReadReq, needsResponse? Y, addr = 4355320
system.cpu.dcache.cpu_side::sendTimingResp: hasPC? 1, PC = 4765214, hasContextId? 1, contextID = 0, Size = 8, time = 2325000, Addr = 4355310, Dir = 2, Cmd = 2, Data = 0
system.cpu.dcache.cpu_side::recvTimingReq: hasPC? 1, PC = 4765218, hasData? 0, NoData, Size = 8, time = 2326000, MemCmd: ReadReq, needsResponse? Y, addr = 4355330
system.cpu.dcache.cpu_side::sendTimingResp: hasPC? 1, PC = 4765216, hasContextId? 1, contextID = 0, Size = 8, time = 2325500, Addr = 4355320, Dir = 2, Cmd = 2, Data = 0
system.cpu.dcache.cpu_side::sendTimingResp: hasPC? 1, PC = 4765218, hasContextId? 1, contextID = 0, Size = 8, time = 2326000, Addr = 4355330, Dir = 2, Cmd = 2, Data = 456151
system.cpu.dcache.cpu_side::recvTimingReq: hasPC? 1, PC = 4546897, hasData? 0, NoData, Size = 4, time = 2333000, MemCmd: ReadReq, needsResponse? Y, addr = 4052150
system.cpu.dcache.cpu_side::sendTimingResp: hasPC? 1, PC = 4546897, hasContextId? 1, contextID = 0, Size = 4, time = 2333000, Addr = 4052150, Dir = 2, Cmd = 2, Data = 0
system.mem_ctrls::access() Cmd: ReadSharedReq, DataDir: 2, CmdDir: 2, Size: 64, addr: 4350210, PC: 4765448, time: 2313000
system.mem_ctrls::access() Cmd: ReadSharedReq, DataDir: 2, CmdDir: 2, Size: 64, addr: 3100620, PC: 4765082, time: 2322000
system.mem_ctrls::access() Cmd: ReadSharedReq, DataDir: 2, CmdDir: 2, Size: 64, addr: 4350220, PC: 4765108, time: 2323000
system.cpu.dcache.cpu_side::sendTimingResp: hasPC? 1, PC = 4765448, hasContextId? 1, contextID = 0, Size = 4, time = 2313000, Addr = 4357210, Dir = 2, Cmd = 2, Data = 64
system.cpu.dcache.cpu_side::sendTimingResp: hasPC? 1, PC = 4765096, hasContextId? 1, contextID = 0, Size = 8, time = 2322000, Addr = 4357210, Dir = 2, Cmd = 2, Data = 64
system.cpu.dcache.cpu_side::sendTimingResp: hasPC? 1, PC = 4765082, hasContextId? 1, contextID = 0, Size = 8, time = 2322000, Addr = 3102620, Dir = 2, Cmd = 2, Data = 48b6c8
system.cpu.dcache.cpu_side::recvTimingReq: hasPC? 1, PC = 4765384, hasData? 0, NoData, Size = 4, time = 2425000, MemCmd: ReadReq, needsResponse? Y, addr = 4357210
system.cpu.dcache.cpu_side::sendTimingResp: hasPC? 1, PC = 4765384, hasContextId? 1, contextID = 0, Size = 4, time = 2425000, Addr = 4357210, Dir = 2, Cmd = 2, Data = 64
system.cpu.dcache.cpu_side::recvTimingReq: hasPC? 1, PC = 4765394, hasData? 0, NoData, Size = 8, time = 2426000, MemCmd: ReadReq, needsResponse? Y, addr = 4357220
system.cpu.dcache.cpu_side::recvTimingReq: hasPC? 1, PC = 4765416, hasData? 0, NoData, Size = 4, time = 2426000, MemCmd: ReadReq, needsResponse? Y, addr = 4357230
system.cpu.dcache.cpu_side::sendTimingResp: hasPC? 1, PC = 4765108, hasContextId? 1, contextID = 0, Size = 8, time = 2323000, Addr = 4357220, Dir = 2, Cmd = 2, Data = e
system.cpu.dcache.cpu_side::sendTimingResp: hasPC? 1, PC = 4765394, hasContextId? 1, contextID = 0, Size = 8, time = 2426000, Addr = 4357220, Dir = 2, Cmd = 2, Data = e
system.cpu.dcache.cpu_side::recvTimingReq: hasPC? 1, PC = 4765082, hasData? 0, NoData, Size = 8, time = 2437000, MemCmd: ReadReq, needsResponse? Y, addr = 3102630
system.cpu.dcache.cpu_side::recvTimingReq: hasPC? 1, PC = 4765096, hasData? 0, NoData, Size = 8, time = 2437000, MemCmd: ReadReq, needsResponse? Y, addr = 4357230
system.cpu.dcache.cpu_side::recvTimingReq: hasPC? 1, PC = 4765108, hasData? 0, NoData, Size = 8, time = 2438000, MemCmd: ReadReq, needsResponse? Y, addr = 4357240
system.cpu.dcache.cpu_side::recvTimingReq: hasPC? 1, PC = 4765212, hasData? 0, NoData, Size = 8, time = 2439000, MemCmd: ReadReq, needsResponse? Y, addr = 4355270
system.cpu.dcache.cpu_side::recvTimingReq: hasPC? 1, PC = 4765213, hasData? 0, NoData, Size = 8, time = 2439500, MemCmd: ReadReq, needsResponse? Y, addr = 4355300
system.cpu.dcache.cpu_side::sendTimingResp: hasPC? 1, PC = 4765212, hasContextId? 1, contextID = 0, Size = 8, time = 2439000, Addr = 4355270, Dir = 2, Cmd = 2, Data = 456ae0
system.cpu.dcache.cpu_side::recvTimingReq: hasPC? 1, PC = 4765214, hasData? 0, NoData, Size = 8, time = 2440000, MemCmd: ReadReq, needsResponse? Y, addr = 4355310
system.cpu.dcache.cpu_side::sendTimingResp: hasPC? 1, PC = 4765213, hasContextId? 1, contextID = 0, Size = 8, time = 2439500, Addr = 4355300, Dir = 2, Cmd = 2, Data = 456aa0
system.cpu.dcache.cpu_side::recvTimingReq: hasPC? 1, PC = 4765216, hasData? 0, NoData, Size = 8, time = 2440500, MemCmd: ReadReq, needsResponse? Y, addr = 4355320
system.cpu.dcache.cpu_side::sendTimingResp: hasPC? 1, PC = 4765214, hasContextId? 1, contextID = 0, Size = 8, time = 2440000, Addr = 4355310, Dir = 2, Cmd = 2, Data = 0
system.cpu.dcache.cpu_side::recvTimingReq: hasPC? 1, PC = 4765218, hasData? 0, NoData, Size = 8, time = 2441000, MemCmd: ReadReq, needsResponse? Y, addr = 4355330
system.cpu.dcache.cpu_side::sendTimingResp: hasPC? 1, PC = 4765216, hasContextId? 1, contextID = 0, Size = 8, time = 2440500, Addr = 4355320, Dir = 2, Cmd = 2, Data = 0
system.cpu.dcache.cpu_side::sendTimingResp: hasPC? 1, PC = 4765218, hasContextId? 1, contextID = 0, Size = 8, time = 2441000, Addr = 4355330, Dir = 2, Cmd = 2, Data = 456151
system.cpu.dcache.cpu_side::recvTimingReq: hasPC? 1, PC = 4546897, hasData? 0, NoData, Size = 4, time = 2448000, MemCmd: ReadReq, needsResponse? Y, addr = 4052150
system.cpu.dcache.cpu_side::sendTimingResp: hasPC? 1, PC = 4546897, hasContextId? 1, contextID = 0, Size = 4, time = 2448000, Addr = 4052150, Dir = 2, Cmd = 2, Data = 0
system.mem_ctrls::access() Cmd: ReadSharedReq, DataDir: 2, CmdDir: 2, Size: 64, addr: 4350230, PC: 4765416, time: 2426000
system.mem_ctrls::access() Cmd: ReadSharedReq, DataDir: 2, CmdDir: 2, Size: 64, addr: 3100630, PC: 4765082, time: 2437000
system.mem_ctrls::access() Cmd: ReadSharedReq, DataDir: 2, CmdDir: 2, Size: 64, addr: 4350240, PC: 4765108, time: 2438000
system.cpu.dcache.cpu_side::sendTimingResp: hasPC? 1, PC = 4765416, hasContextId? 1, contextID = 0, Size = 4, time = 2426000, Addr = 4357230, Dir = 2, Cmd = 2, Data = 64
system.cpu.dcache.cpu_side::sendTimingResp: hasPC? 1, PC = 4765096, hasContextId? 1, contextID = 0, Size = 8, time = 2437000, Addr = 4357230, Dir = 2, Cmd = 2, Data = 64
system.cpu.dcache.cpu_side::sendTimingResp: hasPC? 1, PC = 4765082, hasContextId? 1, contextID = 0, Size = 8, time = 2437000, Addr = 3102630, Dir = 2, Cmd = 2, Data = 48b6a8
system.cpu.dcache.cpu_side::recvTimingReq: hasPC? 1, PC = 4765352, hasData? 0, NoData, Size = 4, time = 2531000, MemCmd: ReadReq, needsResponse? Y, addr = 4357230
system.cpu.dcache.cpu_side::sendTimingResp: hasPC? 1, PC = 4765352, hasContextId? 1, contextID = 0, Size = 4, time = 2531000, Addr = 4357230, Dir = 2, Cmd = 2, Data = 64
system.cpu.dcache.cpu_side::recvTimingReq: hasPC? 1, PC = 4765362, hasData? 0, NoData, Size = 8, time = 2532000, MemCmd: ReadReq, needsResponse? Y, addr = 4357240
system.cpu.dcache.cpu_side::recvTimingReq: hasPC? 1, PC = 4765384, hasData? 0, NoData, Size = 4, time = 2532000, MemCmd: ReadReq, needsResponse? Y, addr = 4357250
system.cpu.dcache.cpu_side::sendTimingResp: hasPC? 1, PC = 4765108, hasContextId? 1, contextID = 0, Size = 8, time = 2438000, Addr = 4357240, Dir = 2, Cmd = 2, Data = 17
system.cpu.dcache.cpu_side::sendTimingResp: hasPC? 1, PC = 4765362, hasContextId? 1, contextID = 0, Size = 8, time = 2532000, Addr = 4357240, Dir = 2, Cmd = 2, Data = 17
[...]
system.cpu.dcache.cpu_side::sendTimingResp: hasPC? 1, PC = 4648136, hasContextId? 1, contextID = 0, Size = 8, time = 4530500, Addr = 4351610, Dir = 2, Cmd = 5, noData
system.cpu.dcache.cpu_side::recvTimingReq: hasPC? 1, PC = 4699984, hasData? 0, NoData, Size = 1, time = 4537000, MemCmd: ReadReq, needsResponse? Y, addr = 3025717
system.cpu.dcache.cpu_side::recvTimingReq: hasPC? 1, PC = 4700200, hasData? 0, NoData, Size = 8, time = 4543000, MemCmd: ReadReq, needsResponse? Y, addr = 4351610
system.cpu.dcache.cpu_side::sendTimingResp: hasPC? 1, PC = 4700200, hasContextId? 1, contextID = 0, Size = 8, time = 4543000, Addr = 4351610, Dir = 2, Cmd = 2, Data = 46eccd
system.cpu.dcache.cpu_side::recvTimingReq: hasPC? 1, PC = 4648141, hasData? 0, NoData, Size = 8, time = 4549500, MemCmd: ReadReq, needsResponse? Y, addr = 4351620
system.cpu.dcache.cpu_side::recvTimingReq: hasPC? 1, PC = 4648163, hasData? 0, NoData, Size = 4, time = 4549500, MemCmd: ReadReq, needsResponse? Y, addr = 4351630
system.cpu.dcache.cpu_side::recvTimingReq: hasPC? 1, PC = 4648170, hasData? 0, NoData, Size = 4, time = 4550000, MemCmd: ReadReq, needsResponse? Y, addr = 4351630
system.cpu.dcache.cpu_side::sendTimingResp: hasPC? 1, PC = 4648141, hasContextId? 1, contextID = 0, Size = 8, time = 4549500, Addr = 4351620, Dir = 2, Cmd = 2, Data = 4c2bcf
system.cpu.dcache.cpu_side::sendTimingResp: hasPC? 1, PC = 4648163, hasContextId? 1, contextID = 0, Size = 4, time = 4549500, Addr = 4351630, Dir = 2, Cmd = 2, Data = 0
system.cpu.dcache.cpu_side::sendTimingResp: hasPC? 1, PC = 4648170, hasContextId? 1, contextID = 0, Size = 4, time = 4550000, Addr = 4351630, Dir = 2, Cmd = 2, Data = 0
system.cpu.dcache.cpu_side::recvTimingReq: hasPC? 1, PC = 4648009, hasData? 0, NoData, Size = 4, time = 4555000, MemCmd: ReadReq, needsResponse? Y, addr = 4351630
system.cpu.dcache.cpu_side::sendTimingResp: hasPC? 1, PC = 4648009, hasContextId? 1, contextID = 0, Size = 4, time = 4555000, Addr = 4351630, Dir = 2, Cmd = 2, Data = 0
system.cpu.dcache.cpu_side::recvTimingReq: hasPC? 1, PC = 4648043, hasData? 0, NoData, Size = 1, time = 4556000, MemCmd: ReadReq, needsResponse? Y, addr = 3313675
system.cpu.dcache.cpu_side::sendTimingResp: hasPC? 1, PC = 4648043, hasContextId? 1, contextID = 0, Size = 1, time = 4556000, Addr = 3313675, Dir = 2, Cmd = 2, Data = 3e4c900
system.cpu.dcache.cpu_side::recvTimingReq: hasPC? 1, PC = 4648052, hasData? 0, NoData, Size = 1, time = 4557500, MemCmd: ReadReq, needsResponse? Y, addr = 4351637
system.cpu.dcache.cpu_side::recvTimingReq: hasPC? 1, PC = 4648080, hasData? 0, NoData, Size = 1, time = 4558000, MemCmd: ReadReq, needsResponse? Y, addr = 3313676
system.cpu.dcache.cpu_side::sendTimingResp: hasPC? 1, PC = 4648052, hasContextId? 1, contextID = 0, Size = 1, time = 4557500, Addr = 4351637, Dir = 2, Cmd = 2, Data = 3e4c925
system.cpu.dcache.cpu_side::sendTimingResp: hasPC? 1, PC = 4648080, hasContextId? 1, contextID = 0, Size = 1, time = 4558000, Addr = 3313676, Dir = 2, Cmd = 2, Data = 3e4c975
system.cpu.dcache.cpu_side::recvTimingReq: hasPC? 1, PC = 4648163, hasData? 0, NoData, Size = 4, time = 4568500, MemCmd: ReadReq, needsResponse? Y, addr = 4351630
system.cpu.dcache.cpu_side::recvTimingReq: hasPC? 1, PC = 4648170, hasData? 0, NoData, Size = 4, time = 4568500, MemCmd: ReadReq, needsResponse? Y, addr = 4351630
system.cpu.dcache.cpu_side::sendTimingResp: hasPC? 1, PC = 4648163, hasContextId? 1, contextID = 0, Size = 4, time = 4568500, Addr = 4351630, Dir = 2, Cmd = 2, Data = 0
system.cpu.dcache.cpu_side::sendTimingResp: hasPC? 1, PC = 4648170, hasContextId? 1, contextID = 0, Size = 4, time = 4568500, Addr = 4351630, Dir = 2, Cmd = 2, Data = 0
system.mem_ctrls::access() Cmd: ReadSharedReq, DataDir: 2, CmdDir: 2, Size: 64, addr: 3020710, PC: 4699984, time: 4537000
system.cpu.dcache.cpu_side::sendTimingResp: hasPC? 1, PC = 4699984, hasContextId? 1, contextID = 0, Size = 1, time = 4537000, Addr = 3025717, Dir = 2, Cmd = 2, Data = 3e4c946
system.cpu.dcache.cpu_side::recvTimingReq: hasPC? 1, PC = 4700016, hasData? 0, NoData, Size = 8, time = 4630000, MemCmd: ReadReq, needsResponse? Y, addr = 3025720
system.cpu.dcache.cpu_side::recvTimingReq: hasPC? 1, PC = 4700042, hasData? 0, NoData, Size = 8, time = 4630500, MemCmd: ReadReq, needsResponse? Y, addr = 3025730
system.cpu.dcache.cpu_side::recvTimingReq: hasPC? 1, PC = 4700068, hasData? 0, NoData, Size = 8, time = 4631000, MemCmd: ReadReq, needsResponse? Y, addr = 3025740
system.mem_ctrls::access() Cmd: ReadSharedReq, DataDir: 2, CmdDir: 2, Size: 64, addr: 3020720, PC: 4700016, time: 4630000
system.mem_ctrls::access() Cmd: ReadSharedReq, DataDir: 2, CmdDir: 2, Size: 64, addr: 3020730, PC: 4700042, time: 4630500
system.mem_ctrls::access() Cmd: ReadSharedReq, DataDir: 2, CmdDir: 2, Size: 64, addr: 3020740, PC: 4700068, time: 4631000
system.cpu.dcache.cpu_side::sendTimingResp: hasPC? 1, PC = 4700016, hasContextId? 1, contextID = 0, Size = 8, time = 4630000, Addr = 3025720, Dir = 2, Cmd = 2, Data = 656b203a4c415441
system.cpu.dcache.cpu_side::sendTimingResp: hasPC? 1, PC = 4700042, hasContextId? 1, contextID = 0, Size = 8, time = 4630500, Addr = 3025730, Dir = 2, Cmd = 2, Data = 6f6f74206c656e72
system.cpu.dcache.cpu_side::sendTimingResp: hasPC? 1, PC = 4700068, hasContextId? 1, contextID = 0, Size = 8, time = 4631000, Addr = 3025740, Dir = 2, Cmd = 2, Data = a646c6f20
system.cpu.dcache.cpu_side::recvTimingReq: hasPC? 1, PC = 4700200, hasData? 0, NoData, Size = 8, time = 4742000, MemCmd: ReadReq, needsResponse? Y, addr = 4351610
system.cpu.dcache.cpu_side::sendTimingResp: hasPC? 1, PC = 4700200, hasContextId? 1, contextID = 0, Size = 8, time = 4742000, Addr = 4351610, Dir = 2, Cmd = 2, Data = 46eccd
system.cpu.dcache.cpu_side::recvTimingReq: hasPC? 1, PC = 4700200, hasData? 0, NoData, Size = 8, time = 4751500, MemCmd: ReadReq, needsResponse? Y, addr = 4351610
system.cpu.dcache.cpu_side::sendTimingResp: hasPC? 1, PC = 4700200, hasContextId? 1, contextID = 0, Size = 8, time = 4751500, Addr = 4351610, Dir = 2, Cmd = 2, Data = 46eccd
system.cpu.dcache.cpu_side::recvTimingReq: hasPC? 1, PC = 4700200, hasData? 0, NoData, Size = 8, time = 4757500, MemCmd: ReadReq, needsResponse? Y, addr = 4351610
system.cpu.dcache.cpu_side::sendTimingResp: hasPC? 1, PC = 4700200, hasContextId? 1, contextID = 0, Size = 8, time = 4757500, Addr = 4351610, Dir = 2, Cmd = 2, Data = 46eccd
system.cpu.dcache.cpu_side::recvTimingReq: hasPC? 1, PC = 4648141, hasData? 0, NoData, Size = 8, time = 4764000, MemCmd: ReadReq, needsResponse? Y, addr = 4351620
system.cpu.dcache.cpu_side::recvTimingReq: hasPC? 1, PC = 4648163, hasData? 0, NoData, Size = 4, time = 4764000, MemCmd: ReadReq, needsResponse? Y, addr = 4351630
system.cpu.dcache.cpu_side::recvTimingReq: hasPC? 1, PC = 4648170, hasData? 0, NoData, Size = 4, time = 4764500, MemCmd: ReadReq, needsResponse? Y, addr = 4351630
system.cpu.dcache.cpu_side::sendTimingResp: hasPC? 1, PC = 4648141, hasContextId? 1, contextID = 0, Size = 8, time = 4764000, Addr = 4351620, Dir = 2, Cmd = 2, Data = 4c2bcf
system.cpu.dcache.cpu_side::sendTimingResp: hasPC? 1, PC = 4648163, hasContextId? 1, contextID = 0, Size = 4, time = 4764000, Addr = 4351630, Dir = 2, Cmd = 2, Data = 0
system.cpu.dcache.cpu_side::sendTimingResp: hasPC? 1, PC = 4648170, hasContextId? 1, contextID = 0, Size = 4, time = 4764500, Addr = 4351630, Dir = 2, Cmd = 2, Data = 0
system.cpu.dcache.cpu_side::recvTimingReq: hasPC? 1, PC = 4648009, hasData? 0, NoData, Size = 4, time = 4770000, MemCmd: ReadReq, needsResponse? Y, addr = 4351630
system.cpu.dcache.cpu_side::sendTimingResp: hasPC? 1, PC = 4648009, hasContextId? 1, contextID = 0, Size = 4, time = 4770000, Addr = 4351630, Dir = 2, Cmd = 2, Data = 0
system.cpu.dcache.cpu_side::recvTimingReq: hasPC? 1, PC = 4648043, hasData? 0, NoData, Size = 1, time = 4771000, MemCmd: ReadReq, needsResponse? Y, addr = 3313675
system.cpu.dcache.cpu_side::sendTimingResp: hasPC? 1, PC = 4648043, hasContextId? 1, contextID = 0, Size = 1, time = 4771000, Addr = 3313675, Dir = 2, Cmd = 2, Data = 3e4c900
system.cpu.dcache.cpu_side::recvTimingReq: hasPC? 1, PC = 4648080, hasData? 0, NoData, Size = 1, time = 4772500, MemCmd: ReadReq, needsResponse? Y, addr = 3313676
system.cpu.dcache.cpu_side::recvTimingReq: hasPC? 1, PC = 4648086, hasData? 0, NoData, Size = 4, time = 4772500, MemCmd: ReadReq, needsResponse? Y, addr = 4354700
system.cpu.dcache.cpu_side::recvTimingReq: hasPC? 1, PC = 4648103, hasData? 0, NoData, Size = 8, time = 4773000, MemCmd: ReadReq, needsResponse? Y, addr = 4354720
system.cpu.dcache.cpu_side::sendTimingResp: hasPC? 1, PC = 4648080, hasContextId? 1, contextID = 0, Size = 1, time = 4772500, Addr = 3313676, Dir = 2, Cmd = 2, Data = 3e4c975
system.cpu.dcache.cpu_side::sendTimingResp: hasPC? 1, PC = 4648086, hasContextId? 1, contextID = 0, Size = 4, time = 4772500, Addr = 4354700, Dir = 2, Cmd = 2, Data = 18
system.cpu.dcache.cpu_side::sendTimingResp: hasPC? 1, PC = 4648103, hasContextId? 1, contextID = 0, Size = 8, time = 4773000, Addr = 4354720, Dir = 2, Cmd = 2, Data = 7fffffffe9e0
system.cpu.dcache.cpu_side::recvTimingReq: hasPC? 1, PC = 4648029, hasData? 1, Data = 0, Size = 8, time = 4772000, MemCmd: WriteReq, needsResponse? Y, addr = 4351560
system.cpu.dcache.cpu_side::sendTimingResp: hasPC? 1, PC = 4648029, hasContextId? 1, contextID = 0, Size = 8, time = 4772000, Addr = 4351560, Dir = 2, Cmd = 5, noData
system.cpu.dcache.cpu_side::recvTimingReq: hasPC? 1, PC = 4648033, hasData? 1, Data = 4c2bcf, Size = 8, time = 4772000, MemCmd: WriteReq, needsResponse? Y, addr = 4351540
system.cpu.dcache.cpu_side::sendTimingResp: hasPC? 1, PC = 4648033, hasContextId? 1, contextID = 0, Size = 8, time = 4772000, Addr = 4351540, Dir = 2, Cmd = 5, noData
system.cpu.dcache.cpu_side::recvTimingReq: hasPC? 1, PC = 4648039, hasData? 1, Data = 16, Size = 8, time = 4772000, MemCmd: WriteReq, needsResponse? Y, addr = 4351550
system.cpu.dcache.cpu_side::sendTimingResp: hasPC? 1, PC = 4648039, hasContextId? 1, contextID = 0, Size = 8, time = 4772000, Addr = 4351550, Dir = 2, Cmd = 5, noData
system.cpu.dcache.cpu_side::recvTimingReq: hasPC? 1, PC = 4648046, hasData? 1, Data = 3e4c900, Size = 1, time = 4773000, MemCmd: WriteReq, needsResponse? Y, addr = 4351637
system.cpu.dcache.cpu_side::sendTimingResp: hasPC? 1, PC = 4648046, hasContextId? 1, contextID = 0, Size = 1, time = 4773000, Addr = 4351637, Dir = 2, Cmd = 5, noData
system.cpu.dcache.cpu_side::recvTimingReq: hasPC? 1, PC = 4648163, hasData? 0, NoData, Size = 4, time = 4781000, MemCmd: ReadReq, needsResponse? Y, addr = 4351630
system.cpu.dcache.cpu_side::recvTimingReq: hasPC? 1, PC = 4648170, hasData? 0, NoData, Size = 4, time = 4781000, MemCmd: ReadReq, needsResponse? Y, addr = 4351630
system.cpu.dcache.cpu_side::sendTimingResp: hasPC? 1, PC = 4648163, hasContextId? 1, contextID = 0, Size = 4, time = 4781000, Addr = 4351630, Dir = 2, Cmd = 2, Data = 0
system.cpu.dcache.cpu_side::sendTimingResp: hasPC? 1, PC = 4648170, hasContextId? 1, contextID = 0, Size = 4, time = 4781000, Addr = 4351630, Dir = 2, Cmd = 2, Data = 0
system.cpu.dcache.cpu_side::recvTimingReq: hasPC? 1, PC = 4648224, hasData? 0, NoData, Size = 8, time = 4782500, MemCmd: ReadReq, needsResponse? Y, addr = 4351540
system.cpu.dcache.cpu_side::recvTimingReq: hasPC? 1, PC = 4648234, hasData? 0, NoData, Size = 8, time = 4782500, MemCmd: ReadReq, needsResponse? Y, addr = 4351550
system.cpu.dcache.cpu_side::recvTimingReq: hasPC? 1, PC = 4648243, hasData? 0, NoData, Size = 8, time = 4783000, MemCmd: ReadReq, needsResponse? Y, addr = 4351550
system.cpu.dcache.cpu_side::sendTimingResp: hasPC? 1, PC = 4648224, hasContextId? 1, contextID = 0, Size = 8, time = 4782500, Addr = 4351540, Dir = 2, Cmd = 2, Data = 4c2bcf
system.cpu.dcache.cpu_side::recvTimingReq: hasPC? 1, PC = 4648255, hasData? 0, NoData, Size = 8, time = 4783500, MemCmd: ReadReq, needsResponse? Y, addr = 4351560
system.cpu.dcache.cpu_side::sendTimingResp: hasPC? 1, PC = 4648234, hasContextId? 1, contextID = 0, Size = 8, time = 4782500, Addr = 4351550, Dir = 2, Cmd = 2, Data = 16
system.cpu.dcache.cpu_side::sendTimingResp: hasPC? 1, PC = 4648243, hasContextId? 1, contextID = 0, Size = 8, time = 4783000, Addr = 4351550, Dir = 2, Cmd = 2, Data = 16
system.cpu.dcache.cpu_side::sendTimingResp: hasPC? 1, PC = 4648255, hasContextId? 1, contextID = 0, Size = 8, time = 4783500, Addr = 4351560, Dir = 2, Cmd = 2, Data = 0
system.cpu.dcache.cpu_side::recvTimingReq: hasPC? 1, PC = 4648231, hasData? 1, Data = 4c2bcf, Size = 8, time = 4785500, MemCmd: WriteReq, needsResponse? Y, addr = 4351500
system.mem_ctrls::access() Cmd: ReadExReq, DataDir: 2, CmdDir: 2, Size: 64, addr: 4350500, PC: 4648231, time: 4785500
system.cpu.dcache.cpu_side::sendTimingResp: hasPC? 1, PC = 4648231, hasContextId? 1, contextID = 0, Size = 8, time = 4785500, Addr = 4351500, Dir = 2, Cmd = 5, noData
system.cpu.dcache.cpu_side::recvTimingReq: hasPC? 1, PC = 4648239, hasData? 1, Data = 16, Size = 8, time = 4785500, MemCmd: WriteReq, needsResponse? Y, addr = 4351510
system.cpu.dcache.cpu_side::sendTimingResp: hasPC? 1, PC = 4648239, hasContextId? 1, contextID = 0, Size = 8, time = 4785500, Addr = 4351510, Dir = 2, Cmd = 5, noData
system.cpu.dcache.cpu_side::recvTimingReq: hasPC? 1, PC = 4648341, hasData? 0, NoData, Size = 8, time = 4874500, MemCmd: ReadReq, needsResponse? Y, addr = 4355230
system.cpu.dcache.cpu_side::sendTimingResp: hasPC? 1, PC = 4648341, hasContextId? 1, contextID = 0, Size = 8, time = 4874500, Addr = 4355230, Dir = 2, Cmd = 2, Data = 4c2bcf
system.cpu.dcache.cpu_side::recvTimingReq: hasPC? 1, PC = 4648325, hasData? 1, Data = 46ed8a, Size = 8, time = 4874000, MemCmd: WriteReq, needsResponse? Y, addr = 4351470
system.mem_ctrls::access() Cmd: ReadExReq, DataDir: 2, CmdDir: 2, Size: 64, addr: 4350470, PC: 4648325, time: 4874000
system.cpu.dcache.cpu_side::sendTimingResp: hasPC? 1, PC = 4648325, hasContextId? 1, contextID = 0, Size = 8, time = 4874000, Addr = 4351470, Dir = 2, Cmd = 5, noData
system.cpu.dcache.cpu_side::recvTimingReq: hasPC? 1, PC = 4754384, hasData? 1, Data = 7fffffffeac0, Size = 8, time = 5068000, MemCmd: WriteReq, needsResponse? Y, addr = 4351420
system.cpu.dcache.cpu_side::sendTimingResp: hasPC? 1, PC = 4754384, hasContextId? 1, contextID = 0, Size = 8, time = 5068000, Addr = 4351420, Dir = 2, Cmd = 5, noData
system.cpu.dcache.cpu_side::recvTimingReq: hasPC? 1, PC = 4754389, hasData? 1, Data = 14, Size = 8, time = 5068000, MemCmd: WriteReq, needsResponse? Y, addr = 4351430
system.mem_ctrls::access() Cmd: ReadExReq, DataDir: 2, CmdDir: 2, Size: 64, addr: 4350430, PC: 4754389, time: 5068000
system.cpu.dcache.cpu_side::recvTimingReq: hasPC? 1, PC = 4754481, hasData? 0, NoData, Size = 4, time = 5148000, MemCmd: ReadReq, needsResponse? Y, addr = 4051740
system.cpu.dcache.cpu_side::sendTimingResp: hasPC? 1, PC = 4754389, hasContextId? 1, contextID = 0, Size = 8, time = 5068000, Addr = 4351430, Dir = 2, Cmd = 5, noData
system.cpu.dcache.cpu_side::recvTimingReq: hasPC? 1, PC = 4754396, hasData? 1, Data = 3, Size = 8, time = 5068000, MemCmd: WriteReq, needsResponse? Y, addr = 4351450
system.mem_ctrls::access() Cmd: ReadSharedReq, DataDir: 2, CmdDir: 2, Size: 64, addr: 4050740, PC: 4754481, time: 5148000
system.cpu.dcache.cpu_side::recvTimingReq: hasPC? 1, PC = 4754501, hasData? 0, NoData, Size = 4, time = 5226500, MemCmd: ReadReq, needsResponse? Y, addr = 4051754
system.mem_ctrls::access() Cmd: ReadExReq, DataDir: 2, CmdDir: 2, Size: 64, addr: 4350450, PC: 4754396, time: 5068000
system.cpu.dcache.cpu_side::sendTimingResp: hasPC? 1, PC = 4754481, hasContextId? 1, contextID = 0, Size = 4, time = 5148000, Addr = 4051740, Dir = 2, Cmd = 2, Data = ff
system.cpu.dcache.cpu_side::sendTimingResp: hasPC? 1, PC = 4754396, hasContextId? 1, contextID = 0, Size = 8, time = 5068000, Addr = 4351450, Dir = 2, Cmd = 5, noData
system.cpu.dcache.cpu_side::recvTimingReq: hasPC? 1, PC = 4754401, hasData? 1, Data = 1, Size = 8, time = 5068000, MemCmd: WriteReq, needsResponse? Y, addr = 4351460
system.mem_ctrls::access() Cmd: ReadSharedReq, DataDir: 2, CmdDir: 2, Size: 64, addr: 4050750, PC: 4754501, time: 5226500
system.mem_ctrls::access() Cmd: ReadExReq, DataDir: 2, CmdDir: 2, Size: 64, addr: 4350460, PC: 4754401, time: 5068000
system.cpu.dcache.cpu_side::sendTimingResp: hasPC? 1, PC = 4754501, hasContextId? 1, contextID = 0, Size = 4, time = 5226500, Addr = 4051754, Dir = 2, Cmd = 2, Data = 8
system.cpu.dcache.cpu_side::recvTimingReq: hasPC? 1, PC = 4860274, hasData? 0, NoData, Size = 8, time = 5334500, MemCmd: ReadReq, needsResponse? Y, addr = 4351020
system.cpu.dcache.cpu_side::sendTimingResp: hasPC? 1, PC = 4860274, hasContextId? 1, contextID = 0, Size = 8, time = 5334500, Addr = 4351020, Dir = 2, Cmd = 2, Data = 0
system.cpu.dcache.cpu_side::sendTimingResp: hasPC? 1, PC = 4754401, hasContextId? 1, contextID = 0, Size = 8, time = 5068000, Addr = 4351460, Dir = 2, Cmd = 5, noData
system.cpu.dcache.cpu_side::recvTimingReq: hasPC? 1, PC = 4754409, hasData? 1, Data = 3, Size = 8, time = 5068500, MemCmd: WriteReq, needsResponse? Y, addr = 4351410
system.mem_ctrls::access() Cmd: ReadExReq, DataDir: 2, CmdDir: 2, Size: 64, addr: 4350410, PC: 4754409, time: 5068500
system.cpu.dcache.cpu_side::recvTimingReq: hasPC? 1, PC = 4683158, hasData? 0, NoData, Size = 8, time = 5438500, MemCmd: ReadReq, needsResponse? Y, addr = 4051650
system.cpu.dcache.cpu_side::recvTimingReq: hasPC? 1, PC = 4683174, hasData? 0, NoData, Size = 1, time = 5439000, MemCmd: ReadReq, needsResponse? Y, addr = 4336100
system.cpu.dcache.cpu_side::sendTimingResp: hasPC? 1, PC = 4754409, hasContextId? 1, contextID = 0, Size = 8, time = 5068500, Addr = 4351410, Dir = 2, Cmd = 5, noData
system.cpu.dcache.cpu_side::recvTimingReq: hasPC? 1, PC = 4754414, hasData? 1, Data = 4d97bb, Size = 8, time = 5068500, MemCmd: WriteReq, needsResponse? Y, addr = 4351440
system.mem_ctrls::access() Cmd: ReadSharedReq, DataDir: 2, CmdDir: 2, Size: 64, addr: 4050650, PC: 4683158, time: 5438500
system.mem_ctrls::access() Cmd: ReadSharedReq, DataDir: 2, CmdDir: 2, Size: 64, addr: 4330100, PC: 4683174, time: 5439000
system.mem_ctrls::access() Cmd: ReadExReq, DataDir: 2, CmdDir: 2, Size: 64, addr: 4350440, PC: 4754414, time: 5068500
system.cpu.dcache.cpu_side::recvTimingReq: hasPC? 1, PC = 4683210, hasData? 0, NoData, Size = 4, time = 5517500, MemCmd: ReadReq, needsResponse? Y, addr = 4345310
system.cpu.dcache.cpu_side::sendTimingResp: hasPC? 1, PC = 4683158, hasContextId? 1, contextID = 0, Size = 8, time = 5438500, Addr = 4051650, Dir = 2, Cmd = 2, Data = 47a000
system.cpu.dcache.cpu_side::sendTimingResp: hasPC? 1, PC = 4683174, hasContextId? 1, contextID = 0, Size = 1, time = 5439000, Addr = 4336100, Dir = 2, Cmd = 2, Data = 3e4c900
system.cpu.dcache.cpu_side::sendTimingResp: hasPC? 1, PC = 4754414, hasContextId? 1, contextID = 0, Size = 8, time = 5068500, Addr = 4351440, Dir = 2, Cmd = 5, noData
system.cpu.dcache.cpu_side::recvTimingReq: hasPC? 1, PC = 4754439, hasData? 1, Data = 4d97bb, Size = 8, time = 5147000, MemCmd: WriteReq, needsResponse? Y, addr = 4351110
system.cpu.dcache.cpu_side::sendTimingResp: hasPC? 1, PC = 4754439, hasContextId? 1, contextID = 0, Size = 8, time = 5147000, Addr = 4351110, Dir = 2, Cmd = 5, noData
system.cpu.dcache.cpu_side::recvTimingReq: hasPC? 1, PC = 4754447, hasData? 1, Data = 0, Size = 8, time = 5147500, MemCmd: WriteReq, needsResponse? Y, addr = 4351360
system.cpu.dcache.cpu_side::sendTimingResp: hasPC? 1, PC = 4754447, hasContextId? 1, contextID = 0, Size = 8, time = 5147500, Addr = 4351360, Dir = 2, Cmd = 5, noData
system.cpu.dcache.cpu_side::recvTimingReq: hasPC? 1, PC = 4754459, hasData? 1, Data = 0, Size = 8, time = 5147500, MemCmd: WriteReq, needsResponse? Y, addr = 4351350
system.cpu.dcache.cpu_side::sendTimingResp: hasPC? 1, PC = 4754459, hasContextId? 1, contextID = 0, Size = 8, time = 5147500, Addr = 4351350, Dir = 2, Cmd = 5, noData
