gem5 Simulator System.  http://gem5.org
gem5 is copyrighted software; use the --copyright option for details.

gem5 compiled Apr 21 2017 15:47:54
gem5 started Apr 21 2017 15:50:35
gem5 executing on shai.cse.psu.edu, pid 10309
command line: /home/mdl/mjl5868/GEM5/Mem2D/New_Version/2dmem_v0_1_addaddrbit/V0_1_AddAddrBit/gem5/build/X86/gem5.opt --redirect-stdout --stdout-file=build_test_Apr21_2017.gemout --redirect-stderr --stderr-file=build_test_Apr21_2017.gemerr --stats-file=build_test_Apr21_2017.stat /home/mdl/mjl5868/GEM5/Mem2D/New_Version/2dmem_v0_1_addaddrbit/V0_1_AddAddrBit/gem5/configs/example/se.py --output=build_test_Apr21_2017.appout --errout=build_test_Apr21_2017.apperr -c /home/mdl/mjl5868/GEM5/Mem2D/New_Version/2dmem_v0_1_addaddrbit/V0_1_AddAddrBit/Run_test_pbs/Vector_test/testscl-bin --caches --cpu-type=atomic --MJL_row_width=8 --MJL_PC2DirFile=test.txt

Global frequency set at 1000000000000 ticks per second
system.cpu.dcache.tags::MJL_rowWidth = 8
system.cpu.dcache::MJL_rowWidth = 8
system.cpu.dcache::MJL_PC2DirFilname = test.txt
MJL_Error: Could not open test input file!
After reading the file
system.cpu.dtb_walker_cache.tags::MJL_rowWidth = 8
system.cpu.dtb_walker_cache::MJL_rowWidth = 8
system.cpu.dtb_walker_cache::MJL_PC2DirFilname = PC2Dir.txt
system.cpu.icache.tags::MJL_rowWidth = 8
system.cpu.icache::MJL_rowWidth = 8
system.cpu.icache::MJL_PC2DirFilname = PC2Dir.txt
system.cpu.itb_walker_cache.tags::MJL_rowWidth = 8
system.cpu.itb_walker_cache::MJL_rowWidth = 8
system.cpu.itb_walker_cache::MJL_PC2DirFilname = PC2Dir.txt
**** REAL SIMULATION ****
info: Entering event queue @ 0.  Starting simulation...
system.mem_ctrls::access() Cmd: ReadSharedReq, DataDir: 2, CmdDir: 2, Size: 64, addr: 4350640, PC: 4194757, time: 1000
setDataFromBlock:: PC = 4194757,  addr = 4356640, offset = 60, sameCmdDataDir? 1, size = 8, blk[0] = 0, blk[1] = 0, blk[2] = 0, blk[3] = 0, blk[4] = 0, blk[5] = 0, blk[6] = 1, blk[7] = 7265565f77654e2f, data = 1
system.mem_ctrls::access() Cmd: ReadExReq, DataDir: 2, CmdDir: 2, Size: 64, addr: 4350630, PC: 4194765, time: 4500
writeDataToBlock:: PC = 4194765,  addr = 4356630, offset = 60, sameCmdDataDir? 1, size = 8, b4wblk[0] = 0, b4wblk[1] = 0, b4wblk[2] = 0, b4wblk[3] = 0, b4wblk[4] = 0, b4wblk[5] = 0, b4wblk[6] = 0, b4wblk[7] = 44326d654d2f354d, data = 0, afwblk[0] = 0, afwblk[1] = 0, afwblk[2] = 0, afwblk[3] = 0, afwblk[4] = 0, afwblk[5] = 0, afwblk[6] = 0, afwblk[7] = 44326d654d2f354d
system.mem_ctrls::access() Cmd: ReadExReq, DataDir: 2, CmdDir: 2, Size: 64, addr: 4350620, PC: 4194766, time: 5500
writeDataToBlock:: PC = 4194766,  addr = 4356620, offset = 60, sameCmdDataDir? 1, size = 8, b4wblk[0] = 0, b4wblk[1] = 0, b4wblk[2] = 0, b4wblk[3] = 0, b4wblk[4] = 0, b4wblk[5] = 0, b4wblk[6] = 0, b4wblk[7] = 45472f383638356c, data = 7fffffffed98, afwblk[0] = 0, afwblk[1] = 0, afwblk[2] = 0, afwblk[3] = 0, afwblk[4] = 0, afwblk[5] = 0, afwblk[6] = 7fffffffed98, afwblk[7] = 45472f383638356c
system.mem_ctrls::access() Cmd: ReadExReq, DataDir: 2, CmdDir: 2, Size: 64, addr: 4350610, PC: 4194788, time: 11000
writeDataToBlock:: PC = 4194788,  addr = 4356610, offset = 60, sameCmdDataDir? 1, size = 8, b4wblk[0] = 0, b4wblk[1] = 0, b4wblk[2] = 0, b4wblk[3] = 0, b4wblk[4] = 0, b4wblk[5] = 0, b4wblk[6] = 0, b4wblk[7] = 6a6d2f6c646d2f65, data = 4001e9, afwblk[0] = 0, afwblk[1] = 0, afwblk[2] = 0, afwblk[3] = 0, afwblk[4] = 0, afwblk[5] = 0, afwblk[6] = 4001e9, afwblk[7] = 6a6d2f6c646d2f65
system.mem_ctrls::access() Cmd: ReadExReq, DataDir: 2, CmdDir: 2, Size: 64, addr: 4350600, PC: 4546768, time: 12500
writeDataToBlock:: PC = 4546768,  addr = 4356600, offset = 60, sameCmdDataDir? 1, size = 8, b4wblk[0] = 0, b4wblk[1] = 0, b4wblk[2] = 0, b4wblk[3] = 0, b4wblk[4] = 0, b4wblk[5] = 0, b4wblk[6] = 0, b4wblk[7] = 6d6f682f006e6962, data = 0, afwblk[0] = 0, afwblk[1] = 0, afwblk[2] = 0, afwblk[3] = 0, afwblk[4] = 0, afwblk[5] = 0, afwblk[6] = 0, afwblk[7] = 6d6f682f006e6962
system.mem_ctrls::access() Cmd: ReadExReq, DataDir: 2, CmdDir: 2, Size: 64, addr: 4350570, PC: 4546775, time: 14500
writeDataToBlock:: PC = 4546775,  addr = 4356570, offset = 60, sameCmdDataDir? 1, size = 8, b4wblk[0] = 0, b4wblk[1] = 0, b4wblk[2] = 0, b4wblk[3] = 0, b4wblk[4] = 0, b4wblk[5] = 0, b4wblk[6] = 0, b4wblk[7] = 2d6c637374736574, data = 0, afwblk[0] = 0, afwblk[1] = 0, afwblk[2] = 0, afwblk[3] = 0, afwblk[4] = 0, afwblk[5] = 0, afwblk[6] = 0, afwblk[7] = 2d6c637374736574
system.mem_ctrls::access() Cmd: ReadExReq, DataDir: 2, CmdDir: 2, Size: 64, addr: 4350560, PC: 4546777, time: 15500
writeDataToBlock:: PC = 4546777,  addr = 4356560, offset = 60, sameCmdDataDir? 1, size = 8, b4wblk[0] = 0, b4wblk[1] = 0, b4wblk[2] = 0, b4wblk[3] = 0, b4wblk[4] = 0, b4wblk[5] = 0, b4wblk[6] = 0, b4wblk[7] = 2f747365745f726f, data = 0, afwblk[0] = 0, afwblk[1] = 0, afwblk[2] = 0, afwblk[3] = 0, afwblk[4] = 0, afwblk[5] = 0, afwblk[6] = 0, afwblk[7] = 2f747365745f726f
system.mem_ctrls::access() Cmd: ReadExReq, DataDir: 2, CmdDir: 2, Size: 64, addr: 4350550, PC: 4546779, time: 16500
writeDataToBlock:: PC = 4546779,  addr = 4356550, offset = 60, sameCmdDataDir? 1, size = 8, b4wblk[0] = 0, b4wblk[1] = 0, b4wblk[2] = 0, b4wblk[3] = 0, b4wblk[4] = 0, b4wblk[5] = 0, b4wblk[6] = 0, b4wblk[7] = 746365562f736270, data = 0, afwblk[0] = 0, afwblk[1] = 0, afwblk[2] = 0, afwblk[3] = 0, afwblk[4] = 0, afwblk[5] = 0, afwblk[6] = 0, afwblk[7] = 746365562f736270
system.mem_ctrls::access() Cmd: ReadExReq, DataDir: 2, CmdDir: 2, Size: 64, addr: 4350540, PC: 4546784, time: 18000
writeDataToBlock:: PC = 4546784,  addr = 4356540, offset = 60, sameCmdDataDir? 1, size = 8, b4wblk[0] = 0, b4wblk[1] = 0, b4wblk[2] = 0, b4wblk[3] = 0, b4wblk[4] = 0, b4wblk[5] = 0, b4wblk[6] = 0, b4wblk[7] = 5f747365745f6e75, data = 0, afwblk[0] = 0, afwblk[1] = 0, afwblk[2] = 0, afwblk[3] = 0, afwblk[4] = 0, afwblk[5] = 0, afwblk[6] = 0, afwblk[7] = 5f747365745f6e75
system.mem_ctrls::access() Cmd: ReadExReq, DataDir: 2, CmdDir: 2, Size: 64, addr: 4350530, PC: 4546788, time: 19500
writeDataToBlock:: PC = 4546788,  addr = 4356530, offset = 60, sameCmdDataDir? 1, size = 8, b4wblk[0] = 0, b4wblk[1] = 0, b4wblk[2] = 0, b4wblk[3] = 0, b4wblk[4] = 0, b4wblk[5] = 0, b4wblk[6] = 0, b4wblk[7] = 522f746942726464, data = 0, afwblk[0] = 0, afwblk[1] = 0, afwblk[2] = 0, afwblk[3] = 0, afwblk[4] = 0, afwblk[5] = 0, afwblk[6] = 0, afwblk[7] = 522f746942726464
system.mem_ctrls::access() Cmd: ReadExReq, DataDir: 2, CmdDir: 2, Size: 64, addr: 4350370, PC: 4546802, time: 23000
writeDataToBlock:: PC = 4546802,  addr = 4355370, offset = 50, sameCmdDataDir? 1, size = 8, b4wblk[0] = 0, b4wblk[1] = 0, b4wblk[2] = 0, b4wblk[3] = 0, b4wblk[4] = 0, b4wblk[5] = 0, b4wblk[6] = 0, b4wblk[7] = 34365f36387800, data = 4003b2, afwblk[0] = 0, afwblk[1] = 0, afwblk[2] = 0, afwblk[3] = 0, afwblk[4] = 0, afwblk[5] = 4003b2, afwblk[6] = 0, afwblk[7] = 34365f36387800
system.mem_ctrls::access() Cmd: ReadExReq, DataDir: 2, CmdDir: 2, Size: 64, addr: 4350350, PC: 4546807, time: 24000
writeDataToBlock:: PC = 4546807,  addr = 4355354, offset = 54, sameCmdDataDir? 1, size = 4, b4wblk[0] = 0, b4wblk[1] = 0, b4wblk[2] = 0, b4wblk[3] = 0, b4wblk[4] = 0, b4wblk[5] = 0, b4wblk[6] = 0, b4wblk[7] = 0, data = 1, afwblk[0] = 0, afwblk[1] = 0, afwblk[2] = 0, afwblk[3] = 0, afwblk[4] = 0, afwblk[5] = 100000000, afwblk[6] = 0, afwblk[7] = 0
system.mem_ctrls::access() Cmd: ReadExReq, DataDir: 2, CmdDir: 2, Size: 64, addr: 4350360, PC: 4546811, time: 24500
writeDataToBlock:: PC = 4546811,  addr = 4355360, offset = 50, sameCmdDataDir? 1, size = 8, b4wblk[0] = 0, b4wblk[1] = 0, b4wblk[2] = 0, b4wblk[3] = 0, b4wblk[4] = 0, b4wblk[5] = 0, b4wblk[6] = 0, b4wblk[7] = 0, data = 7fffffffeda8, afwblk[0] = 0, afwblk[1] = 0, afwblk[2] = 0, afwblk[3] = 0, afwblk[4] = 0, afwblk[5] = 7fffffffeda8, afwblk[6] = 0, afwblk[7] = 0
system.mem_ctrls::access() Cmd: ReadExReq, DataDir: 2, CmdDir: 2, Size: 64, addr: 4050150, PC: 4546830, time: 27500
writeDataToBlock:: PC = 4546830,  addr = 4052150, offset = 20, sameCmdDataDir? 1, size = 4, b4wblk[0] = 0, b4wblk[1] = 0, b4wblk[2] = 1, b4wblk[3] = 0, b4wblk[4] = 0, b4wblk[5] = 0, b4wblk[6] = 0, b4wblk[7] = 0, data = 0, afwblk[0] = 0, afwblk[1] = 0, afwblk[2] = 0, afwblk[3] = 0, afwblk[4] = 0, afwblk[5] = 0, afwblk[6] = 0, afwblk[7] = 0
setDataFromBlock:: PC = 4546836,  addr = 4355354, offset = 54, sameCmdDataDir? 1, size = 4, blk[0] = 0, blk[1] = 0, blk[2] = 0, blk[3] = 0, blk[4] = 0, blk[5] = 100000000, blk[6] = 0, blk[7] = 0, data = 1
setDataFromBlock:: PC = 4546841,  addr = 4355360, offset = 50, sameCmdDataDir? 1, size = 8, blk[0] = 0, blk[1] = 0, blk[2] = 0, blk[3] = 0, blk[4] = 0, blk[5] = 7fffffffeda8, blk[6] = 0, blk[7] = 0, data = 7fffffffeda8
setDataFromBlock:: PC = 4546851,  addr = 4356620, offset = 60, sameCmdDataDir? 1, size = 8, blk[0] = 0, blk[1] = 0, blk[2] = 0, blk[3] = 0, blk[4] = 0, blk[5] = 0, blk[6] = 7fffffffed98, blk[7] = 45472f383638356c, data = 7fffffffed98
system.mem_ctrls::access() Cmd: ReadExReq, DataDir: 2, CmdDir: 2, Size: 64, addr: 4330310, PC: 4546859, time: 33000
writeDataToBlock:: PC = 4546859,  addr = 4336310, offset = 60, sameCmdDataDir? 1, size = 8, b4wblk[0] = 0, b4wblk[1] = 0, b4wblk[2] = 0, b4wblk[3] = 0, b4wblk[4] = 0, b4wblk[5] = 0, b4wblk[6] = 0, b4wblk[7] = 0, data = 7fffffffedb8, afwblk[0] = 0, afwblk[1] = 0, afwblk[2] = 0, afwblk[3] = 0, afwblk[4] = 0, afwblk[5] = 0, afwblk[6] = 7fffffffedb8, afwblk[7] = 0
system.mem_ctrls::access() Cmd: ReadExReq, DataDir: 2, CmdDir: 2, Size: 64, addr: 4040500, PC: 4546866, time: 34500
writeDataToBlock:: PC = 4546866,  addr = 4040500, offset = 0, sameCmdDataDir? 1, size = 8, b4wblk[0] = 0, b4wblk[1] = 7004c0, b4wblk[2] = 700be0, b4wblk[3] = 6ffde0, b4wblk[4] = 703aa0, b4wblk[5] = 4c0b44, b4wblk[6] = 0, b4wblk[7] = 0, data = 7fffffffed98, afwblk[0] = 7fffffffed98, afwblk[1] = 7004c0, afwblk[2] = 700be0, afwblk[3] = 6ffde0, afwblk[4] = 703aa0, afwblk[5] = 4c0b44, afwblk[6] = 0, afwblk[7] = 0
system.mem_ctrls::access() Cmd: ReadSharedReq, DataDir: 2, CmdDir: 2, Size: 64, addr: 4350670, PC: 4546880, time: 35500
setDataFromBlock:: PC = 4546880,  addr = 4356670, offset = 60, sameCmdDataDir? 1, size = 8, blk[0] = 0, blk[1] = 0, blk[2] = 0, blk[3] = 0, blk[4] = 0, blk[5] = 0, blk[6] = 0, blk[7] = 6272646461646461, data = 0
system.mem_ctrls::access() Cmd: ReadExReq, DataDir: 2, CmdDir: 2, Size: 64, addr: 4350330, PC: 4546892, time: 41000
writeDataToBlock:: PC = 4546892,  addr = 4355330, offset = 50, sameCmdDataDir? 1, size = 8, b4wblk[0] = 0, b4wblk[1] = 0, b4wblk[2] = 0, b4wblk[3] = 0, b4wblk[4] = 0, b4wblk[5] = 0, b4wblk[6] = 0, b4wblk[7] = 7fffffffef09, data = 456151, afwblk[0] = 0, afwblk[1] = 0, afwblk[2] = 0, afwblk[3] = 0, afwblk[4] = 0, afwblk[5] = 456151, afwblk[6] = 0, afwblk[7] = 7fffffffef09
system.mem_ctrls::access() Cmd: ReadExReq, DataDir: 2, CmdDir: 2, Size: 64, addr: 4350320, PC: 4764992, time: 42500
writeDataToBlock:: PC = 4764992,  addr = 4355320, offset = 50, sameCmdDataDir? 1, size = 8, b4wblk[0] = 0, b4wblk[1] = 0, b4wblk[2] = 0, b4wblk[3] = 0, b4wblk[4] = 0, b4wblk[5] = 0, b4wblk[6] = 0, b4wblk[7] = f, data = 0, afwblk[0] = 0, afwblk[1] = 0, afwblk[2] = 0, afwblk[3] = 0, afwblk[4] = 0, afwblk[5] = 0, afwblk[6] = 0, afwblk[7] = f
system.mem_ctrls::access() Cmd: ReadSharedReq, DataDir: 2, CmdDir: 2, Size: 64, addr: 4350700, PC: 4764994, time: 43500
setDataFromBlock:: PC = 4764994,  addr = 4356700, offset = 60, sameCmdDataDir? 1, size = 8, blk[0] = 0, blk[1] = 0, blk[2] = 0, blk[3] = 0, blk[4] = 0, blk[5] = 0, blk[6] = 21, blk[7] = 5f315f30562f7469, data = 21
system.mem_ctrls::access() Cmd: ReadExReq, DataDir: 2, CmdDir: 2, Size: 64, addr: 4350310, PC: 4764997, time: 44000
writeDataToBlock:: PC = 4764997,  addr = 4355310, offset = 50, sameCmdDataDir? 1, size = 8, b4wblk[0] = 0, b4wblk[1] = 0, b4wblk[2] = 0, b4wblk[3] = 0, b4wblk[4] = 0, b4wblk[5] = 0, b4wblk[6] = 0, b4wblk[7] = 7fffffffeda8, data = 0, afwblk[0] = 0, afwblk[1] = 0, afwblk[2] = 0, afwblk[3] = 0, afwblk[4] = 0, afwblk[5] = 0, afwblk[6] = 0, afwblk[7] = 7fffffffeda8
system.mem_ctrls::access() Cmd: ReadExReq, DataDir: 2, CmdDir: 2, Size: 64, addr: 4350300, PC: 4765002, time: 46000
writeDataToBlock:: PC = 4765002,  addr = 4355300, offset = 50, sameCmdDataDir? 1, size = 8, b4wblk[0] = 0, b4wblk[1] = 0, b4wblk[2] = 0, b4wblk[3] = 0, b4wblk[4] = 0, b4wblk[5] = 0, b4wblk[6] = 0, b4wblk[7] = 1f, data = 456aa0, afwblk[0] = 0, afwblk[1] = 0, afwblk[2] = 0, afwblk[3] = 0, afwblk[4] = 0, afwblk[5] = 456aa0, afwblk[6] = 0, afwblk[7] = 1f
system.mem_ctrls::access() Cmd: ReadExReq, DataDir: 2, CmdDir: 2, Size: 64, addr: 4350270, PC: 4765003, time: 47000
writeDataToBlock:: PC = 4765003,  addr = 4355270, offset = 50, sameCmdDataDir? 1, size = 8, b4wblk[0] = 0, b4wblk[1] = 0, b4wblk[2] = 0, b4wblk[3] = 0, b4wblk[4] = 0, b4wblk[5] = 0, b4wblk[6] = 0, b4wblk[7] = 7fffffffeef9, data = 456ae0, afwblk[0] = 0, afwblk[1] = 0, afwblk[2] = 0, afwblk[3] = 0, afwblk[4] = 0, afwblk[5] = 456ae0, afwblk[6] = 0, afwblk[7] = 7fffffffeef9
system.mem_ctrls::access() Cmd: ReadSharedReq, DataDir: 2, CmdDir: 2, Size: 64, addr: 4340360, PC: 4765010, time: 51000
setDataFromBlock:: PC = 4765010,  addr = 4345360, offset = 50, sameCmdDataDir? 1, size = 8, blk[0] = 0, blk[1] = 0, blk[2] = 0, blk[3] = 0, blk[4] = 0, blk[5] = 0, blk[6] = 0, blk[7] = 0, data = 0
system.mem_ctrls::access() Cmd: ReadSharedReq, DataDir: 2, CmdDir: 2, Size: 64, addr: 4340660, PC: 4765017, time: 52000
setDataFromBlock:: PC = 4765017,  addr = 4345660, offset = 50, sameCmdDataDir? 1, size = 4, blk[0] = 0, blk[1] = 0, blk[2] = 0, blk[3] = 0, blk[4] = 0, blk[5] = 0, blk[6] = 0, blk[7] = 0, data = 0
system.mem_ctrls::access() Cmd: ReadSharedReq, DataDir: 2, CmdDir: 2, Size: 64, addr: 4340350, PC: 4765026, time: 54000
setDataFromBlock:: PC = 4765026,  addr = 4345350, offset = 50, sameCmdDataDir? 1, size = 8, blk[0] = 0, blk[1] = 0, blk[2] = 0, blk[3] = 0, blk[4] = 0, blk[5] = 0, blk[6] = 0, blk[7] = 0, data = 0
system.mem_ctrls::access() Cmd: ReadSharedReq, DataDir: 2, CmdDir: 2, Size: 64, addr: 4340570, PC: 4765033, time: 55000
setDataFromBlock:: PC = 4765033,  addr = 4345570, offset = 50, sameCmdDataDir? 1, size = 8, blk[0] = 0, blk[1] = 0, blk[2] = 0, blk[3] = 0, blk[4] = 0, blk[5] = 0, blk[6] = 0, blk[7] = 0, data = 0
system.mem_ctrls::access() Cmd: ReadSharedReq, DataDir: 2, CmdDir: 2, Size: 64, addr: 4340260, PC: 4765042, time: 57000
setDataFromBlock:: PC = 4765042,  addr = 4343260, offset = 30, sameCmdDataDir? 1, size = 8, blk[0] = 0, blk[1] = 0, blk[2] = 0, blk[3] = 0, blk[4] = 0, blk[5] = 0, blk[6] = 0, blk[7] = 0, data = 0
system.mem_ctrls::access() Cmd: ReadSharedReq, DataDir: 2, CmdDir: 2, Size: 64, addr: 4340650, PC: 4765049, time: 58000
setDataFromBlock:: PC = 4765049,  addr = 4345650, offset = 50, sameCmdDataDir? 1, size = 8, blk[0] = 0, blk[1] = 0, blk[2] = 0, blk[3] = 0, blk[4] = 0, blk[5] = 0, blk[6] = 0, blk[7] = 0, data = 0
system.mem_ctrls::access() Cmd: ReadSharedReq, DataDir: 2, CmdDir: 2, Size: 64, addr: 4040510, PC: 4765058, time: 60000
setDataFromBlock:: PC = 4765058,  addr = 4040510, offset = 0, sameCmdDataDir? 1, size = 4, blk[0] = 1, blk[1] = 6ff960, blk[2] = 700860, blk[3] = 700de0, blk[4] = 7177c8, blk[5] = 4c0b48, blk[6] = 71a2c0, blk[7] = 0, data = 1
system.mem_ctrls::access() Cmd: ReadSharedReq, DataDir: 2, CmdDir: 2, Size: 64, addr: 4340760, PC: 4765065, time: 61000
setDataFromBlock:: PC = 4765065,  addr = 4345760, offset = 50, sameCmdDataDir? 1, size = 4, blk[0] = 0, blk[1] = 0, blk[2] = 0, blk[3] = 0, blk[4] = 0, blk[5] = 0, blk[6] = 0, blk[7] = 0, data = 0
system.mem_ctrls::access() Cmd: ReadSharedReq, DataDir: 2, CmdDir: 2, Size: 64, addr: 3100060, PC: 4765082, time: 65500
setDataFromBlock:: PC = 4765082,  addr = 3103060, offset = 30, sameCmdDataDir? 1, size = 8, blk[0] = 487c30, blk[1] = 487bc8, blk[2] = 487abc, blk[3] = 48b628, blk[4] = 534355004c414e52, blk[5] = 2f36343630312d4f, blk[6] = 2f2f383639312d34, blk[7] = 0, data = 48b628
system.mem_ctrls::access() Cmd: ReadSharedReq, DataDir: 2, CmdDir: 2, Size: 64, addr: 4350710, PC: 4765224, time: 66500
setDataFromBlock:: PC = 4765224,  addr = 4356710, offset = 60, sameCmdDataDir? 1, size = 8, blk[0] = 0, blk[1] = 0, blk[2] = 0, blk[3] = 0, blk[4] = 0, blk[5] = 0, blk[6] = ffffffffff600000, blk[7] = 4272646441646441, data = ffffffffff600000
system.mem_ctrls::access() Cmd: ReadSharedReq, DataDir: 2, CmdDir: 2, Size: 64, addr: 4350720, PC: 4765232, time: 68000
setDataFromBlock:: PC = 4765232,  addr = 4356720, offset = 60, sameCmdDataDir? 1, size = 8, blk[0] = 0, blk[1] = 0, blk[2] = 0, blk[3] = 0, blk[4] = 0, blk[5] = 0, blk[6] = 10, blk[7] = 745f6e75522f7469, data = 10
system.mem_ctrls::access() Cmd: ReadSharedReq, DataDir: 2, CmdDir: 2, Size: 64, addr: 3100650, PC: 4765082, time: 75000
setDataFromBlock:: PC = 4765082,  addr = 3102650, offset = 20, sameCmdDataDir? 1, size = 8, blk[0] = 487bc8, blk[1] = 487abc, blk[2] = 48b688, blk[3] = 5f454c49464f5250, blk[4] = 2f34534355534300, blk[5] = 534e41002f2f342e, blk[6] = 493880, blk[7] = 0, data = 48b688
system.mem_ctrls::access() Cmd: ReadSharedReq, DataDir: 2, CmdDir: 2, Size: 64, addr: 4350730, PC: 4765320, time: 76000
setDataFromBlock:: PC = 4765320,  addr = 4356730, offset = 60, sameCmdDataDir? 1, size = 8, blk[0] = 0, blk[1] = 0, blk[2] = 0, blk[3] = 0, blk[4] = 0, blk[5] = 0, blk[6] = 78bfbff, blk[7] = 2f7362705f747365, data = 78bfbff
system.mem_ctrls::access() Cmd: ReadSharedReq, DataDir: 2, CmdDir: 2, Size: 64, addr: 4350740, PC: 4765328, time: 77500
setDataFromBlock:: PC = 4765328,  addr = 4356740, offset = 60, sameCmdDataDir? 1, size = 8, blk[0] = 0, blk[1] = 0, blk[2] = 0, blk[3] = 0, blk[4] = 0, blk[5] = 0, blk[6] = 6, blk[7] = 745f726f74636556, data = 6
system.mem_ctrls::access() Cmd: ReadSharedReq, DataDir: 2, CmdDir: 2, Size: 64, addr: 3100530, PC: 4765082, time: 84500
setDataFromBlock:: PC = 4765082,  addr = 3102530, offset = 20, sameCmdDataDir? 1, size = 8, blk[0] = 487bc8, blk[1] = 487abc, blk[2] = 48b5a8, blk[3] = 5a5400524944504d, blk[4] = 0, blk[5] = 552f36343630312d, blk[6] = 0, blk[7] = 6f63670065686361, data = 48b5a8
system.mem_ctrls::access() Cmd: ReadSharedReq, DataDir: 2, CmdDir: 2, Size: 64, addr: 4350750, PC: 4765096, time: 85500
setDataFromBlock:: PC = 4765096,  addr = 4356750, offset = 60, sameCmdDataDir? 1, size = 8, blk[0] = 0, blk[1] = 0, blk[2] = 0, blk[3] = 0, blk[4] = 0, blk[5] = 0, blk[6] = 1000, blk[7] = 747365742f747365, data = 1000
system.mem_ctrls::access() Cmd: ReadSharedReq, DataDir: 2, CmdDir: 2, Size: 64, addr: 4350760, PC: 4765108, time: 87500
setDataFromBlock:: PC = 4765108,  addr = 4356760, offset = 60, sameCmdDataDir? 1, size = 8, blk[0] = 0, blk[1] = 0, blk[2] = 0, blk[3] = 0, blk[4] = 0, blk[5] = 0, blk[6] = 11, blk[7] = 6e69622d6c6373, data = 11
system.mem_ctrls::access() Cmd: ReadSharedReq, DataDir: 2, CmdDir: 2, Size: 64, addr: 3100660, PC: 4765082, time: 94500
setDataFromBlock:: PC = 4765082,  addr = 3102660, offset = 20, sameCmdDataDir? 1, size = 8, blk[0] = 487bc8, blk[1] = 487abc, blk[2] = 48b668, blk[3] = 2f0054555054554f, blk[4] = 30312d4f5349002f, blk[5] = 312d342e33585f49, blk[6] = 0, blk[7] = 0, data = 48b668
system.mem_ctrls::access() Cmd: ReadSharedReq, DataDir: 2, CmdDir: 2, Size: 64, addr: 4350770, PC: 4765288, time: 95500
setDataFromBlock:: PC = 4765288,  addr = 4356770, offset = 60, sameCmdDataDir? 1, size = 4, blk[0] = 0, blk[1] = 0, blk[2] = 0, blk[3] = 0, blk[4] = 0, blk[5] = 0, blk[6] = 64, blk[7] = 0, data = 64
system.mem_ctrls::access() Cmd: ReadSharedReq, DataDir: 2, CmdDir: 2, Size: 64, addr: 4350000, PC: 4765296, time: 97000
setDataFromBlock:: PC = 4765296,  addr = 4357000, offset = 70, sameCmdDataDir? 1, size = 8, blk[0] = 0, blk[1] = 0, blk[2] = 0, blk[3] = 0, blk[4] = 0, blk[5] = 0, blk[6] = 0, blk[7] = 3, data = 3
system.mem_ctrls::access() Cmd: ReadSharedReq, DataDir: 2, CmdDir: 2, Size: 64, addr: 3100500, PC: 4765082, time: 104000
setDataFromBlock:: PC = 4765082,  addr = 3102500, offset = 20, sameCmdDataDir? 1, size = 8, blk[0] = 487ae0, blk[1] = 487d49, blk[2] = 48b748, blk[3] = 4f435f54534f485f, blk[4] = 0, blk[5] = 4f002f325343552f, blk[6] = 2f2f474942, blk[7] = 766e6f63672f3436, data = 48b748
system.mem_ctrls::access() Cmd: ReadSharedReq, DataDir: 2, CmdDir: 2, Size: 64, addr: 4350010, PC: 4765512, time: 105000
setDataFromBlock:: PC = 4765512,  addr = 4357010, offset = 70, sameCmdDataDir? 1, size = 8, blk[0] = 0, blk[1] = 0, blk[2] = 0, blk[3] = 0, blk[4] = 0, blk[5] = 0, blk[6] = 0, blk[7] = 400040, data = 400040
system.mem_ctrls::access() Cmd: ReadSharedReq, DataDir: 2, CmdDir: 2, Size: 64, addr: 4350020, PC: 4765520, time: 106500
setDataFromBlock:: PC = 4765520,  addr = 4357020, offset = 70, sameCmdDataDir? 1, size = 8, blk[0] = 0, blk[1] = 0, blk[2] = 0, blk[3] = 0, blk[4] = 0, blk[5] = 0, blk[6] = 0, blk[7] = 4, data = 4
system.mem_ctrls::access() Cmd: ReadSharedReq, DataDir: 2, CmdDir: 2, Size: 64, addr: 3100510, PC: 4765082, time: 113500
setDataFromBlock:: PC = 4765082,  addr = 3102510, offset = 20, sameCmdDataDir? 1, size = 8, blk[0] = 487bc8, blk[1] = 487d49, blk[2] = 48b5b0, blk[3] = 4f5f53455200464e, blk[4] = 0, blk[5] = 3130313030304653, blk[6] = 0, blk[7] = 6d2d766e6f63672f, data = 48b5b0
system.mem_ctrls::access() Cmd: ReadSharedReq, DataDir: 2, CmdDir: 2, Size: 64, addr: 4350040, PC: 4765108, time: 115500
setDataFromBlock:: PC = 4765108,  addr = 4357040, offset = 70, sameCmdDataDir? 1, size = 8, blk[0] = 0, blk[1] = 0, blk[2] = 0, blk[3] = 0, blk[4] = 0, blk[5] = 0, blk[6] = 0, blk[7] = 5, data = 5
system.mem_ctrls::access() Cmd: ReadSharedReq, DataDir: 2, CmdDir: 2, Size: 64, addr: 3100520, PC: 4765082, time: 122500
setDataFromBlock:: PC = 4765082,  addr = 3102520, offset = 20, sameCmdDataDir? 1, size = 8, blk[0] = 487bc8, blk[1] = 487abc, blk[2] = 48b728, blk[3] = 5400534e4f495450, blk[4] = 0, blk[5] = 4f5349002f2f3030, blk[6] = 0, blk[7] = 632e73656c75646f, data = 48b728
system.mem_ctrls::access() Cmd: ReadSharedReq, DataDir: 2, CmdDir: 2, Size: 64, addr: 4350050, PC: 4765480, time: 123500
setDataFromBlock:: PC = 4765480,  addr = 4357050, offset = 70, sameCmdDataDir? 1, size = 8, blk[0] = 0, blk[1] = 0, blk[2] = 0, blk[3] = 0, blk[4] = 0, blk[5] = 0, blk[6] = 0, blk[7] = 5, data = 5
system.mem_ctrls::access() Cmd: ReadSharedReq, DataDir: 2, CmdDir: 2, Size: 64, addr: 4350060, PC: 4765488, time: 125000
setDataFromBlock:: PC = 4765488,  addr = 4357060, offset = 70, sameCmdDataDir? 1, size = 8, blk[0] = 0, blk[1] = 0, blk[2] = 0, blk[3] = 0, blk[4] = 0, blk[5] = 0, blk[6] = 0, blk[7] = 7, data = 7
system.mem_ctrls::access() Cmd: ReadSharedReq, DataDir: 2, CmdDir: 2, Size: 64, addr: 3100540, PC: 4765082, time: 132000
setDataFromBlock:: PC = 4765082,  addr = 3102540, offset = 20, sameCmdDataDir? 1, size = 8, blk[0] = 487ae0, blk[1] = 487abc, blk[2] = 48b5b0, blk[3] = 5f444c0000524944, blk[4] = 49002f2f34534355, blk[5] = 46534f002f325343, blk[6] = 4c8815, blk[7] = 766e6f636700766e, data = 48b5b0
system.mem_ctrls::access() Cmd: ReadSharedReq, DataDir: 2, CmdDir: 2, Size: 64, addr: 4350100, PC: 4765108, time: 134000
setDataFromBlock:: PC = 4765108,  addr = 4357100, offset = 70, sameCmdDataDir? 1, size = 8, blk[0] = 0, blk[1] = 0, blk[2] = 0, blk[3] = 0, blk[4] = 0, blk[5] = 0, blk[6] = 0, blk[7] = 8, data = 8
system.mem_ctrls::access() Cmd: ReadSharedReq, DataDir: 2, CmdDir: 2, Size: 64, addr: 3100550, PC: 4765082, time: 141000
setDataFromBlock:: PC = 4765082,  addr = 3102550, offset = 20, sameCmdDataDir? 1, size = 8, blk[0] = 487bc8, blk[1] = 487abc, blk[2] = 48b5b0, blk[3] = 5f444c004e524157, blk[4] = 36343630312d4f53, blk[5] = 3130313031303030, blk[6] = 4934d0, blk[7] = 63670074696e695f, data = 48b5b0
system.mem_ctrls::access() Cmd: ReadSharedReq, DataDir: 2, CmdDir: 2, Size: 64, addr: 4350120, PC: 4765108, time: 143000
setDataFromBlock:: PC = 4765108,  addr = 4357120, offset = 70, sameCmdDataDir? 1, size = 8, blk[0] = 0, blk[1] = 0, blk[2] = 0, blk[3] = 0, blk[4] = 0, blk[5] = 0, blk[6] = 0, blk[7] = 9, data = 9
system.mem_ctrls::access() Cmd: ReadSharedReq, DataDir: 2, CmdDir: 2, Size: 64, addr: 3100560, PC: 4765082, time: 150000
setDataFromBlock:: PC = 4765082,  addr = 3102560, offset = 20, sameCmdDataDir? 1, size = 8, blk[0] = 487bc8, blk[1] = 487abc, blk[2] = 48b5b0, blk[3] = 5f5952415242494c, blk[4] = 55002f345343552f, blk[5] = 312d4f5349002f2f, blk[6] = 0, blk[7] = 646e655f766e6f, data = 48b5b0
system.mem_ctrls::access() Cmd: ReadSharedReq, DataDir: 2, CmdDir: 2, Size: 64, addr: 4350140, PC: 4765108, time: 152000
setDataFromBlock:: PC = 4765108,  addr = 4357140, offset = 70, sameCmdDataDir? 1, size = 8, blk[0] = 0, blk[1] = 0, blk[2] = 0, blk[3] = 0, blk[4] = 0, blk[5] = 0, blk[6] = 0, blk[7] = b, data = b
system.mem_ctrls::access() Cmd: ReadSharedReq, DataDir: 2, CmdDir: 2, Size: 64, addr: 3100600, PC: 4765082, time: 159000
setDataFromBlock:: PC = 4765082,  addr = 3102600, offset = 20, sameCmdDataDir? 1, size = 8, blk[0] = 487bc8, blk[1] = 487abc, blk[2] = 48b708, blk[3] = 574f4e5f444e4942, blk[4] = 36343630312d4f53, blk[5] = 303046534f002f32, blk[6] = 4c8825, blk[7] = 0, data = 48b708
system.mem_ctrls::access() Cmd: ReadSharedReq, DataDir: 2, CmdDir: 2, Size: 64, addr: 4350150, PC: 4765448, time: 160000
setDataFromBlock:: PC = 4765448,  addr = 4357150, offset = 70, sameCmdDataDir? 1, size = 4, blk[0] = 0, blk[1] = 0, blk[2] = 0, blk[3] = 0, blk[4] = 0, blk[5] = 0, blk[6] = 0, blk[7] = 64, data = 64
system.mem_ctrls::access() Cmd: ReadSharedReq, DataDir: 2, CmdDir: 2, Size: 64, addr: 4350160, PC: 4765458, time: 163500
setDataFromBlock:: PC = 4765458,  addr = 4357160, offset = 70, sameCmdDataDir? 1, size = 8, blk[0] = 0, blk[1] = 0, blk[2] = 0, blk[3] = 0, blk[4] = 0, blk[5] = 0, blk[6] = 0, blk[7] = c, data = c
system.mem_ctrls::access() Cmd: ReadSharedReq, DataDir: 2, CmdDir: 2, Size: 64, addr: 3100610, PC: 4765082, time: 170000
setDataFromBlock:: PC = 4765082,  addr = 3102610, offset = 20, sameCmdDataDir? 1, size = 8, blk[0] = 487bc8, blk[1] = 487abc, blk[2] = 48b6e8, blk[3] = 444e49425f444c00, blk[4] = 55002f345343552f, blk[5] = 2f2f323031303130, blk[6] = 492fd0, blk[7] = 0, data = 48b6e8
system.mem_ctrls::access() Cmd: ReadSharedReq, DataDir: 2, CmdDir: 2, Size: 64, addr: 4350170, PC: 4765416, time: 171000
setDataFromBlock:: PC = 4765416,  addr = 4357170, offset = 70, sameCmdDataDir? 1, size = 4, blk[0] = 0, blk[1] = 0, blk[2] = 0, blk[3] = 0, blk[4] = 0, blk[5] = 0, blk[6] = 0, blk[7] = 64, data = 64
system.mem_ctrls::access() Cmd: ReadSharedReq, DataDir: 2, CmdDir: 2, Size: 64, addr: 4350200, PC: 4765426, time: 174500
setDataFromBlock:: PC = 4765426,  addr = 4357200, offset = 70, sameCmdDataDir? 1, size = 8, blk[0] = 0, blk[1] = 0, blk[2] = 0, blk[3] = 0, blk[4] = 0, blk[5] = 0, blk[6] = 0, blk[7] = d, data = d
system.mem_ctrls::access() Cmd: ReadSharedReq, DataDir: 2, CmdDir: 2, Size: 64, addr: 3100620, PC: 4765082, time: 181000
setDataFromBlock:: PC = 4765082,  addr = 3102620, offset = 20, sameCmdDataDir? 1, size = 8, blk[0] = 487bc8, blk[1] = 487abc, blk[2] = 48b6c8, blk[3] = 5f444c00544f4e5f, blk[4] = 2f2f4542342d5343, blk[5] = 3630312d4f534900, blk[6] = 0, blk[7] = 0, data = 48b6c8
system.mem_ctrls::access() Cmd: ReadSharedReq, DataDir: 2, CmdDir: 2, Size: 64, addr: 4350210, PC: 4765384, time: 182000
setDataFromBlock:: PC = 4765384,  addr = 4357210, offset = 70, sameCmdDataDir? 1, size = 4, blk[0] = 0, blk[1] = 0, blk[2] = 0, blk[3] = 0, blk[4] = 0, blk[5] = 0, blk[6] = 0, blk[7] = 64, data = 64
system.mem_ctrls::access() Cmd: ReadSharedReq, DataDir: 2, CmdDir: 2, Size: 64, addr: 4350220, PC: 4765394, time: 185500
setDataFromBlock:: PC = 4765394,  addr = 4357220, offset = 70, sameCmdDataDir? 1, size = 8, blk[0] = 0, blk[1] = 0, blk[2] = 0, blk[3] = 0, blk[4] = 0, blk[5] = 0, blk[6] = 0, blk[7] = e, data = e
system.mem_ctrls::access() Cmd: ReadSharedReq, DataDir: 2, CmdDir: 2, Size: 64, addr: 3100630, PC: 4765082, time: 192000
setDataFromBlock:: PC = 4765082,  addr = 3102630, offset = 20, sameCmdDataDir? 1, size = 8, blk[0] = 487bc8, blk[1] = 487abc, blk[2] = 48b6a8, blk[3] = 5f43494d414e5944, blk[4] = 3630312d4f534900, blk[5] = 2f325343552f3634, blk[6] = 4040404, blk[7] = 0, data = 48b6a8
system.mem_ctrls::access() Cmd: ReadSharedReq, DataDir: 2, CmdDir: 2, Size: 64, addr: 4350230, PC: 4765352, time: 193000
setDataFromBlock:: PC = 4765352,  addr = 4357230, offset = 70, sameCmdDataDir? 1, size = 4, blk[0] = 0, blk[1] = 0, blk[2] = 0, blk[3] = 0, blk[4] = 0, blk[5] = 0, blk[6] = 0, blk[7] = 64, data = 64
system.mem_ctrls::access() Cmd: ReadSharedReq, DataDir: 2, CmdDir: 2, Size: 64, addr: 4350240, PC: 4765362, time: 196500
setDataFromBlock:: PC = 4765362,  addr = 4357240, offset = 70, sameCmdDataDir? 1, size = 8, blk[0] = 0, blk[1] = 0, blk[2] = 0, blk[3] = 0, blk[4] = 0, blk[5] = 0, blk[6] = 0, blk[7] = 17, data = 17
system.mem_ctrls::access() Cmd: ReadSharedReq, DataDir: 2, CmdDir: 2, Size: 64, addr: 3100740, PC: 4765082, time: 203000
setDataFromBlock:: PC = 4765082,  addr = 3102740, offset = 20, sameCmdDataDir? 1, size = 8, blk[0] = 487ae0, blk[1] = 487abc, blk[2] = 48b640, blk[3] = 4749004c454e5245, blk[4] = 39313a312d363436, blk[5] = 363839312d342e33, blk[6] = 4c8873, blk[7] = 0, data = 48b640
system.mem_ctrls::access() Cmd: ReadSharedReq, DataDir: 2, CmdDir: 2, Size: 64, addr: 4350250, PC: 4765248, time: 204000
setDataFromBlock:: PC = 4765248,  addr = 4357250, offset = 70, sameCmdDataDir? 1, size = 4, blk[0] = 0, blk[1] = 0, blk[2] = 0, blk[3] = 0, blk[4] = 0, blk[5] = 0, blk[6] = 0, blk[7] = 0, data = 0
system.mem_ctrls::access() Cmd: ReadSharedReq, DataDir: 2, CmdDir: 2, Size: 64, addr: 4350260, PC: 4765262, time: 206500
setDataFromBlock:: PC = 4765262,  addr = 4357260, offset = 70, sameCmdDataDir? 1, size = 8, blk[0] = 0, blk[1] = 0, blk[2] = 0, blk[3] = 0, blk[4] = 0, blk[5] = 0, blk[6] = 0, blk[7] = 19, data = 19
system.mem_ctrls::access() Cmd: ReadSharedReq, DataDir: 2, CmdDir: 2, Size: 64, addr: 3100760, PC: 4765082, time: 214000
setDataFromBlock:: PC = 4765082,  addr = 3102760, offset = 20, sameCmdDataDir? 1, size = 8, blk[0] = 487c30, blk[1] = 487abc, blk[2] = 48b5b0, blk[3] = 4c88aa, blk[4] = 552f36343630312d, blk[5] = 3639312d342e3358, blk[6] = 0, blk[7] = 0, data = 48b5b0
setDataFromBlock:: PC = 4765108,  addr = 4357300, offset = 70, sameCmdDataDir? 1, size = 8, blk[0] = 0, blk[1] = 0, blk[2] = 0, blk[3] = 0, blk[4] = 0, blk[5] = 456aa0, blk[6] = 0, blk[7] = 1f, data = 1f
system.mem_ctrls::access() Cmd: ReadSharedReq, DataDir: 2, CmdDir: 2, Size: 64, addr: 3100040, PC: 4765082, time: 223000
setDataFromBlock:: PC = 4765082,  addr = 3103040, offset = 30, sameCmdDataDir? 1, size = 8, blk[0] = 487bc8, blk[1] = 487bc8, blk[2] = 487abc, blk[3] = 48b5b0, blk[4] = 63753d0034736375, blk[5] = 303130303046534f, blk[6] = 2f2f4949435341, blk[7] = 4c88a3, data = 48b5b0
setDataFromBlock:: PC = 4765108,  addr = 4357320, offset = 70, sameCmdDataDir? 1, size = 8, blk[0] = 0, blk[1] = 0, blk[2] = 0, blk[3] = 0, blk[4] = 0, blk[5] = 0, blk[6] = 0, blk[7] = f, data = f
system.mem_ctrls::access() Cmd: ReadSharedReq, DataDir: 2, CmdDir: 2, Size: 64, addr: 3100640, PC: 4765082, time: 232000
setDataFromBlock:: PC = 4765082,  addr = 3102640, offset = 20, sameCmdDataDir? 1, size = 8, blk[0] = 487bc8, blk[1] = 487abc, blk[2] = 48b5b0, blk[3] = 5f444c004b414557, blk[4] = 2f345343552f3634, blk[5] = 33585f49534e4100, blk[6] = 4c883f, blk[7] = 0, data = 48b5b0
system.mem_ctrls::access() Cmd: ReadSharedReq, DataDir: 2, CmdDir: 2, Size: 64, addr: 4350340, PC: 4765108, time: 234000
setDataFromBlock:: PC = 4765108,  addr = 4357340, offset = 70, sameCmdDataDir? 1, size = 8, blk[0] = 0, blk[1] = 0, blk[2] = 0, blk[3] = 0, blk[4] = 0, blk[5] = 0, blk[6] = 0, blk[7] = 0, data = 0
writeDataToBlock:: PC = 4765123,  addr = 4345360, offset = 50, sameCmdDataDir? 1, size = 8, b4wblk[0] = 0, b4wblk[1] = 0, b4wblk[2] = 0, b4wblk[3] = 0, b4wblk[4] = 0, b4wblk[5] = 0, b4wblk[6] = 0, b4wblk[7] = 0, data = 1000, afwblk[0] = 0, afwblk[1] = 0, afwblk[2] = 0, afwblk[3] = 0, afwblk[4] = 0, afwblk[5] = 1000, afwblk[6] = 0, afwblk[7] = 0
writeDataToBlock:: PC = 4765130,  addr = 4345660, offset = 50, sameCmdDataDir? 1, size = 4, b4wblk[0] = 0, b4wblk[1] = 0, b4wblk[2] = 0, b4wblk[3] = 0, b4wblk[4] = 0, b4wblk[5] = 0, b4wblk[6] = 0, b4wblk[7] = 0, data = 64, afwblk[0] = 0, afwblk[1] = 0, afwblk[2] = 0, afwblk[3] = 0, afwblk[4] = 0, afwblk[5] = 64, afwblk[6] = 0, afwblk[7] = 0
writeDataToBlock:: PC = 4765137,  addr = 4345350, offset = 50, sameCmdDataDir? 1, size = 8, b4wblk[0] = 0, b4wblk[1] = 0, b4wblk[2] = 0, b4wblk[3] = 0, b4wblk[4] = 0, b4wblk[5] = 0, b4wblk[6] = 0, b4wblk[7] = 0, data = 400040, afwblk[0] = 0, afwblk[1] = 0, afwblk[2] = 0, afwblk[3] = 0, afwblk[4] = 0, afwblk[5] = 400040, afwblk[6] = 0, afwblk[7] = 0
writeDataToBlock:: PC = 4765144,  addr = 4345570, offset = 50, sameCmdDataDir? 1, size = 8, b4wblk[0] = 0, b4wblk[1] = 0, b4wblk[2] = 0, b4wblk[3] = 0, b4wblk[4] = 0, b4wblk[5] = 0, b4wblk[6] = 0, b4wblk[7] = 0, data = 5, afwblk[0] = 0, afwblk[1] = 0, afwblk[2] = 0, afwblk[3] = 0, afwblk[4] = 0, afwblk[5] = 5, afwblk[6] = 0, afwblk[7] = 0
writeDataToBlock:: PC = 4765151,  addr = 4343260, offset = 30, sameCmdDataDir? 1, size = 8, b4wblk[0] = 0, b4wblk[1] = 0, b4wblk[2] = 0, b4wblk[3] = 0, b4wblk[4] = 0, b4wblk[5] = 0, b4wblk[6] = 0, b4wblk[7] = 0, data = 78bfbff, afwblk[0] = 0, afwblk[1] = 0, afwblk[2] = 0, afwblk[3] = 78bfbff, afwblk[4] = 0, afwblk[5] = 0, afwblk[6] = 0, afwblk[7] = 0
writeDataToBlock:: PC = 4765158,  addr = 4345650, offset = 50, sameCmdDataDir? 1, size = 8, b4wblk[0] = 0, b4wblk[1] = 0, b4wblk[2] = 0, b4wblk[3] = 0, b4wblk[4] = 0, b4wblk[5] = 0, b4wblk[6] = 0, b4wblk[7] = 0, data = ffffffffff600000, afwblk[0] = 0, afwblk[1] = 0, afwblk[2] = 0, afwblk[3] = 0, afwblk[4] = 0, afwblk[5] = ffffffffff600000, afwblk[6] = 0, afwblk[7] = 0
writeDataToBlock:: PC = 4765165,  addr = 4040510, offset = 0, sameCmdDataDir? 1, size = 4, b4wblk[0] = 1, b4wblk[1] = 6ff960, b4wblk[2] = 700860, b4wblk[3] = 700de0, b4wblk[4] = 7177c8, b4wblk[5] = 4c0b48, b4wblk[6] = 71a2c0, b4wblk[7] = 0, data = 0, afwblk[0] = 0, afwblk[1] = 6ff960, afwblk[2] = 700860, afwblk[3] = 700de0, afwblk[4] = 7177c8, afwblk[5] = 4c0b48, afwblk[6] = 71a2c0, afwblk[7] = 0
writeDataToBlock:: PC = 4765172,  addr = 4345760, offset = 50, sameCmdDataDir? 1, size = 4, b4wblk[0] = 0, b4wblk[1] = 0, b4wblk[2] = 0, b4wblk[3] = 0, b4wblk[4] = 0, b4wblk[5] = 0, b4wblk[6] = 0, b4wblk[7] = 0, data = 1, afwblk[0] = 0, afwblk[1] = 0, afwblk[2] = 0, afwblk[3] = 0, afwblk[4] = 0, afwblk[5] = 1, afwblk[6] = 0, afwblk[7] = 0
setDataFromBlock:: PC = 4765212,  addr = 4355270, offset = 50, sameCmdDataDir? 1, size = 8, blk[0] = 0, blk[1] = 0, blk[2] = 0, blk[3] = 0, blk[4] = 0, blk[5] = 456ae0, blk[6] = 0, blk[7] = 7fffffffeef9, data = 456ae0
setDataFromBlock:: PC = 4765213,  addr = 4355300, offset = 50, sameCmdDataDir? 1, size = 8, blk[0] = 0, blk[1] = 0, blk[2] = 0, blk[3] = 0, blk[4] = 0, blk[5] = 456aa0, blk[6] = 0, blk[7] = 1f, data = 456aa0
setDataFromBlock:: PC = 4765214,  addr = 4355310, offset = 50, sameCmdDataDir? 1, size = 8, blk[0] = 0, blk[1] = 0, blk[2] = 0, blk[3] = 0, blk[4] = 0, blk[5] = 0, blk[6] = 0, blk[7] = 7fffffffeda8, data = 0
setDataFromBlock:: PC = 4765216,  addr = 4355320, offset = 50, sameCmdDataDir? 1, size = 8, blk[0] = 0, blk[1] = 0, blk[2] = 0, blk[3] = 0, blk[4] = 0, blk[5] = 0, blk[6] = 0, blk[7] = f, data = 0
setDataFromBlock:: PC = 4765218,  addr = 4355330, offset = 50, sameCmdDataDir? 1, size = 8, blk[0] = 0, blk[1] = 0, blk[2] = 0, blk[3] = 0, blk[4] = 0, blk[5] = 456151, blk[6] = 0, blk[7] = 7fffffffef09, data = 456151
setDataFromBlock:: PC = 4546897,  addr = 4052150, offset = 20, sameCmdDataDir? 1, size = 4, blk[0] = 0, blk[1] = 0, blk[2] = 0, blk[3] = 0, blk[4] = 0, blk[5] = 0, blk[6] = 0, blk[7] = 0, data = 0
writeDataToBlock:: PC = 4546926,  addr = 4355330, offset = 50, sameCmdDataDir? 1, size = 8, b4wblk[0] = 0, b4wblk[1] = 0, b4wblk[2] = 0, b4wblk[3] = 0, b4wblk[4] = 0, b4wblk[5] = 456151, b4wblk[6] = 0, b4wblk[7] = 7fffffffef09, data = 456173, afwblk[0] = 0, afwblk[1] = 0, afwblk[2] = 0, afwblk[3] = 0, afwblk[4] = 0, afwblk[5] = 456173, afwblk[6] = 0, afwblk[7] = 7fffffffef09
setDataFromBlock:: PC = 4749587,  addr = 4355330, offset = 50, sameCmdDataDir? 1, size = 8, blk[0] = 0, blk[1] = 0, blk[2] = 0, blk[3] = 0, blk[4] = 0, blk[5] = 456173, blk[6] = 0, blk[7] = 7fffffffef09, data = 456173
setDataFromBlock:: PC = 4546939,  addr = 4355602, offset = 52, sameCmdDataDir? 1, size = 1, blk[0] = 0, blk[1] = 0, blk[2] = 0, blk[3] = 0, blk[4] = 0, blk[5] = 0, blk[6] = 0, blk[7] = 6d6f682f006e6962, data = 0
setDataFromBlock:: PC = 4547081,  addr = 4345664, offset = 54, sameCmdDataDir? 1, size = 4, blk[0] = 0, blk[1] = 0, blk[2] = 0, blk[3] = 0, blk[4] = 0, blk[5] = 64, blk[6] = 0, blk[7] = 0, data = 0
writeDataToBlock:: PC = 4547095,  addr = 4345664, offset = 54, sameCmdDataDir? 1, size = 4, b4wblk[0] = 0, b4wblk[1] = 0, b4wblk[2] = 0, b4wblk[3] = 0, b4wblk[4] = 0, b4wblk[5] = 64, b4wblk[6] = 0, b4wblk[7] = 0, data = 0, afwblk[0] = 0, afwblk[1] = 0, afwblk[2] = 0, afwblk[3] = 0, afwblk[4] = 0, afwblk[5] = 64, afwblk[6] = 0, afwblk[7] = 0
writeDataToBlock:: PC = 4547426,  addr = 4355330, offset = 50, sameCmdDataDir? 1, size = 8, b4wblk[0] = 0, b4wblk[1] = 0, b4wblk[2] = 0, b4wblk[3] = 0, b4wblk[4] = 0, b4wblk[5] = 456173, b4wblk[6] = 0, b4wblk[7] = 7fffffffef09, data = 456367, afwblk[0] = 0, afwblk[1] = 0, afwblk[2] = 0, afwblk[3] = 0, afwblk[4] = 0, afwblk[5] = 456367, afwblk[6] = 0, afwblk[7] = 7fffffffef09
writeDataToBlock:: PC = 4648576,  addr = 4355320, offset = 50, sameCmdDataDir? 1, size = 8, b4wblk[0] = 0, b4wblk[1] = 0, b4wblk[2] = 0, b4wblk[3] = 0, b4wblk[4] = 0, b4wblk[5] = 0, b4wblk[6] = 0, b4wblk[7] = f, data = 456ae0, afwblk[0] = 0, afwblk[1] = 0, afwblk[2] = 0, afwblk[3] = 0, afwblk[4] = 0, afwblk[5] = 456ae0, afwblk[6] = 0, afwblk[7] = f
writeDataToBlock:: PC = 4648599,  addr = 4355310, offset = 50, sameCmdDataDir? 1, size = 8, b4wblk[0] = 0, b4wblk[1] = 0, b4wblk[2] = 0, b4wblk[3] = 0, b4wblk[4] = 0, b4wblk[5] = 0, b4wblk[6] = 0, b4wblk[7] = 7fffffffeda8, data = 46ee9c, afwblk[0] = 0, afwblk[1] = 0, afwblk[2] = 0, afwblk[3] = 0, afwblk[4] = 0, afwblk[5] = 46ee9c, afwblk[6] = 0, afwblk[7] = 7fffffffeda8
writeDataToBlock:: PC = 4647648,  addr = 4355300, offset = 50, sameCmdDataDir? 1, size = 8, b4wblk[0] = 0, b4wblk[1] = 0, b4wblk[2] = 0, b4wblk[3] = 0, b4wblk[4] = 0, b4wblk[5] = 456aa0, b4wblk[6] = 0, b4wblk[7] = 1f, data = 456aa0, afwblk[0] = 0, afwblk[1] = 0, afwblk[2] = 0, afwblk[3] = 0, afwblk[4] = 0, afwblk[5] = 456aa0, afwblk[6] = 0, afwblk[7] = 1f
writeDataToBlock:: PC = 4647655,  addr = 4355270, offset = 50, sameCmdDataDir? 1, size = 8, b4wblk[0] = 0, b4wblk[1] = 0, b4wblk[2] = 0, b4wblk[3] = 0, b4wblk[4] = 0, b4wblk[5] = 456ae0, b4wblk[6] = 0, b4wblk[7] = 7fffffffeef9, data = 0, afwblk[0] = 0, afwblk[1] = 0, afwblk[2] = 0, afwblk[3] = 0, afwblk[4] = 0, afwblk[5] = 0, afwblk[6] = 0, afwblk[7] = 7fffffffeef9
writeDataToBlock:: PC = 4647665,  addr = 4355260, offset = 50, sameCmdDataDir? 1, size = 8, b4wblk[0] = 0, b4wblk[1] = 0, b4wblk[2] = 0, b4wblk[3] = 0, b4wblk[4] = 0, b4wblk[5] = 0, b4wblk[6] = 0, b4wblk[7] = 19, data = 7fffffffeb82, afwblk[0] = 0, afwblk[1] = 0, afwblk[2] = 0, afwblk[3] = 0, afwblk[4] = 0, afwblk[5] = 7fffffffeb82, afwblk[6] = 0, afwblk[7] = 19
writeDataToBlock:: PC = 4647667,  addr = 4355250, offset = 50, sameCmdDataDir? 1, size = 8, b4wblk[0] = 0, b4wblk[1] = 0, b4wblk[2] = 0, b4wblk[3] = 0, b4wblk[4] = 0, b4wblk[5] = 0, b4wblk[6] = 0, b4wblk[7] = 0, data = 7fffffffeb00, afwblk[0] = 0, afwblk[1] = 0, afwblk[2] = 0, afwblk[3] = 0, afwblk[4] = 0, afwblk[5] = 7fffffffeb00, afwblk[6] = 0, afwblk[7] = 0
writeDataToBlock:: PC = 4647672,  addr = 4355240, offset = 50, sameCmdDataDir? 1, size = 8, b4wblk[0] = 0, b4wblk[1] = 0, b4wblk[2] = 0, b4wblk[3] = 0, b4wblk[4] = 0, b4wblk[5] = 0, b4wblk[6] = 0, b4wblk[7] = 17, data = 0, afwblk[0] = 0, afwblk[1] = 0, afwblk[2] = 0, afwblk[3] = 0, afwblk[4] = 0, afwblk[5] = 0, afwblk[6] = 0, afwblk[7] = 17
writeDataToBlock:: PC = 4647674,  addr = 4355230, offset = 50, sameCmdDataDir? 1, size = 8, b4wblk[0] = 0, b4wblk[1] = 0, b4wblk[2] = 0, b4wblk[3] = 0, b4wblk[4] = 0, b4wblk[5] = 0, b4wblk[6] = 0, b4wblk[7] = 64, data = 4c2bcf, afwblk[0] = 0, afwblk[1] = 0, afwblk[2] = 0, afwblk[3] = 0, afwblk[4] = 0, afwblk[5] = 4c2bcf, afwblk[6] = 0, afwblk[7] = 64
writeDataToBlock:: PC = 4647682,  addr = 4354760, offset = 40, sameCmdDataDir? 1, size = 8, b4wblk[0] = 0, b4wblk[1] = 0, b4wblk[2] = 0, b4wblk[3] = 0, b4wblk[4] = 0, b4wblk[5] = 0, b4wblk[6] = 11, b4wblk[7] = 6e69622d6c6373, data = 4c2bcf, afwblk[0] = 0, afwblk[1] = 0, afwblk[2] = 0, afwblk[3] = 0, afwblk[4] = 4c2bcf, afwblk[5] = 0, afwblk[6] = 11, afwblk[7] = 6e69622d6c6373
writeDataToBlock:: PC = 4647702,  addr = 4354770, offset = 40, sameCmdDataDir? 1, size = 8, b4wblk[0] = 0, b4wblk[1] = 0, b4wblk[2] = 0, b4wblk[3] = 0, b4wblk[4] = 0, b4wblk[5] = 0, b4wblk[6] = 64, b4wblk[7] = 0, data = 0, afwblk[0] = 0, afwblk[1] = 0, afwblk[2] = 0, afwblk[3] = 0, afwblk[4] = 0, afwblk[5] = 0, afwblk[6] = 64, afwblk[7] = 0
writeDataToBlock:: PC = 4647709,  addr = 4355000, offset = 50, sameCmdDataDir? 1, size = 8, b4wblk[0] = 0, b4wblk[1] = 0, b4wblk[2] = 0, b4wblk[3] = 0, b4wblk[4] = 0, b4wblk[5] = 0, b4wblk[6] = 0, b4wblk[7] = 3, data = 0, afwblk[0] = 0, afwblk[1] = 0, afwblk[2] = 0, afwblk[3] = 0, afwblk[4] = 0, afwblk[5] = 0, afwblk[6] = 0, afwblk[7] = 3
writeDataToBlock:: PC = 4647723,  addr = 4355010, offset = 50, sameCmdDataDir? 1, size = 8, b4wblk[0] = 0, b4wblk[1] = 0, b4wblk[2] = 0, b4wblk[3] = 0, b4wblk[4] = 0, b4wblk[5] = 0, b4wblk[6] = 0, b4wblk[7] = 400040, data = 0, afwblk[0] = 0, afwblk[1] = 0, afwblk[2] = 0, afwblk[3] = 0, afwblk[4] = 0, afwblk[5] = 0, afwblk[6] = 0, afwblk[7] = 400040
writeDataToBlock:: PC = 4647768,  addr = 4354700, offset = 40, sameCmdDataDir? 1, size = 4, b4wblk[0] = 0, b4wblk[1] = 0, b4wblk[2] = 0, b4wblk[3] = 0, b4wblk[4] = 0, b4wblk[5] = 0, b4wblk[6] = 21, b4wblk[7] = 5f315f30562f7469, data = 10, afwblk[0] = 0, afwblk[1] = 0, afwblk[2] = 0, afwblk[3] = 0, afwblk[4] = 10, afwblk[5] = 0, afwblk[6] = 21, afwblk[7] = 5f315f30562f7469
writeDataToBlock:: PC = 4647778,  addr = 4354704, offset = 44, sameCmdDataDir? 1, size = 4, b4wblk[0] = 0, b4wblk[1] = 0, b4wblk[2] = 0, b4wblk[3] = 0, b4wblk[4] = 10, b4wblk[5] = 0, b4wblk[6] = 21, b4wblk[7] = 5f315f30562f7469, data = 30, afwblk[0] = 0, afwblk[1] = 0, afwblk[2] = 0, afwblk[3] = 0, afwblk[4] = 3000000010, afwblk[5] = 0, afwblk[6] = 21, afwblk[7] = 5f315f30562f7469
writeDataToBlock:: PC = 4647788,  addr = 4354710, offset = 40, sameCmdDataDir? 1, size = 8, b4wblk[0] = 0, b4wblk[1] = 0, b4wblk[2] = 0, b4wblk[3] = 0, b4wblk[4] = 0, b4wblk[5] = 0, b4wblk[6] = ffffffffff600000, b4wblk[7] = 4272646441646441, data = 7fffffffead0, afwblk[0] = 0, afwblk[1] = 0, afwblk[2] = 0, afwblk[3] = 0, afwblk[4] = 7fffffffead0, afwblk[5] = 0, afwblk[6] = ffffffffff600000, afwblk[7] = 4272646441646441
writeDataToBlock:: PC = 4647802,  addr = 4354720, offset = 40, sameCmdDataDir? 1, size = 8, b4wblk[0] = 0, b4wblk[1] = 0, b4wblk[2] = 0, b4wblk[3] = 0, b4wblk[4] = 0, b4wblk[5] = 0, b4wblk[6] = 10, b4wblk[7] = 745f6e75522f7469, data = 7fffffffe9e0, afwblk[0] = 0, afwblk[1] = 0, afwblk[2] = 0, afwblk[3] = 0, afwblk[4] = 7fffffffe9e0, afwblk[5] = 0, afwblk[6] = 10, afwblk[7] = 745f6e75522f7469
setDataFromBlock:: PC = 4647809,  addr = 4354700, offset = 40, sameCmdDataDir? 1, size = 8, blk[0] = 0, blk[1] = 0, blk[2] = 0, blk[3] = 0, blk[4] = 3000000010, blk[5] = 0, blk[6] = 21, blk[7] = 5f315f30562f7469, data = 3000000010
writeDataToBlock:: PC = 4647816,  addr = 4354640, offset = 40, sameCmdDataDir? 1, size = 8, b4wblk[0] = 0, b4wblk[1] = 0, b4wblk[2] = 0, b4wblk[3] = 0, b4wblk[4] = 0, b4wblk[5] = 0, b4wblk[6] = 1, b4wblk[7] = 7265565f77654e2f, data = 3000000010, afwblk[0] = 0, afwblk[1] = 0, afwblk[2] = 0, afwblk[3] = 0, afwblk[4] = 3000000010, afwblk[5] = 0, afwblk[6] = 1, afwblk[7] = 7265565f77654e2f
system.mem_ctrls::access() Cmd: ReadExReq, DataDir: 2, CmdDir: 2, Size: 64, addr: 4350650, PC: 4647827, time: 338000
writeDataToBlock:: PC = 4647827,  addr = 4354650, offset = 40, sameCmdDataDir? 1, size = 8, b4wblk[0] = 0, b4wblk[1] = 0, b4wblk[2] = 0, b4wblk[3] = 0, b4wblk[4] = 0, b4wblk[5] = 0, b4wblk[6] = 7fffffffef10, b4wblk[7] = 6d64322f6e6f6973, data = 7fffffffead0, afwblk[0] = 0, afwblk[1] = 0, afwblk[2] = 0, afwblk[3] = 0, afwblk[4] = 7fffffffead0, afwblk[5] = 0, afwblk[6] = 7fffffffef10, afwblk[7] = 6d64322f6e6f6973
system.mem_ctrls::access() Cmd: ReadExReq, DataDir: 2, CmdDir: 2, Size: 64, addr: 4350660, PC: 4647841, time: 339500
writeDataToBlock:: PC = 4647841,  addr = 4354660, offset = 40, sameCmdDataDir? 1, size = 8, b4wblk[0] = 0, b4wblk[1] = 0, b4wblk[2] = 0, b4wblk[3] = 0, b4wblk[4] = 0, b4wblk[5] = 0, b4wblk[6] = 0, b4wblk[7] = 5f315f30765f6d65, data = 7fffffffe9e0, afwblk[0] = 0, afwblk[1] = 0, afwblk[2] = 0, afwblk[3] = 0, afwblk[4] = 7fffffffe9e0, afwblk[5] = 0, afwblk[6] = 0, afwblk[7] = 5f315f30765f6d65
writeDataToBlock:: PC = 4647848,  addr = 4351610, offset = 10, sameCmdDataDir? 1, size = 8, b4wblk[0] = 0, b4wblk[1] = 0, b4wblk[2] = 0, b4wblk[3] = 0, b4wblk[4] = 0, b4wblk[5] = 0, b4wblk[6] = 4001e9, b4wblk[7] = 6a6d2f6c646d2f65, data = 46ebad, afwblk[0] = 0, afwblk[1] = 46ebad, afwblk[2] = 0, afwblk[3] = 0, afwblk[4] = 0, afwblk[5] = 0, afwblk[6] = 4001e9, afwblk[7] = 6a6d2f6c646d2f65
setDataFromBlock:: PC = 4809952,  addr = 4040510, offset = 0, sameCmdDataDir? 1, size = 4, blk[0] = 0, blk[1] = 6ff960, blk[2] = 700860, blk[3] = 700de0, blk[4] = 7177c8, blk[5] = 4c0b48, blk[6] = 71a2c0, blk[7] = 0, data = 0
writeDataToBlock:: PC = 4583648,  addr = 4351530, offset = 10, sameCmdDataDir? 1, size = 8, b4wblk[0] = 0, b4wblk[1] = 0, b4wblk[2] = 0, b4wblk[3] = 0, b4wblk[4] = 0, b4wblk[5] = 0, b4wblk[6] = 0, b4wblk[7] = 522f746942726464, data = 4c2bcf, afwblk[0] = 0, afwblk[1] = 4c2bcf, afwblk[2] = 0, afwblk[3] = 0, afwblk[4] = 0, afwblk[5] = 0, afwblk[6] = 0, afwblk[7] = 522f746942726464
writeDataToBlock:: PC = 4583653,  addr = 4351550, offset = 10, sameCmdDataDir? 1, size = 8, b4wblk[0] = 0, b4wblk[1] = 0, b4wblk[2] = 0, b4wblk[3] = 0, b4wblk[4] = 0, b4wblk[5] = 0, b4wblk[6] = 0, b4wblk[7] = 746365562f736270, data = 0, afwblk[0] = 0, afwblk[1] = 0, afwblk[2] = 0, afwblk[3] = 0, afwblk[4] = 0, afwblk[5] = 0, afwblk[6] = 0, afwblk[7] = 746365562f736270
writeDataToBlock:: PC = 4583658,  addr = 4351600, offset = 10, sameCmdDataDir? 1, size = 8, b4wblk[0] = 0, b4wblk[1] = 0, b4wblk[2] = 0, b4wblk[3] = 0, b4wblk[4] = 0, b4wblk[5] = 0, b4wblk[6] = 0, b4wblk[7] = 6d6f682f006e6962, data = 1, afwblk[0] = 0, afwblk[1] = 1, afwblk[2] = 0, afwblk[3] = 0, afwblk[4] = 0, afwblk[5] = 0, afwblk[6] = 0, afwblk[7] = 6d6f682f006e6962
writeDataToBlock:: PC = 4583663,  addr = 4351540, offset = 10, sameCmdDataDir? 1, size = 8, b4wblk[0] = 0, b4wblk[1] = 0, b4wblk[2] = 0, b4wblk[3] = 0, b4wblk[4] = 0, b4wblk[5] = 0, b4wblk[6] = 0, b4wblk[7] = 5f747365745f6e75, data = 7fffffffeac0, afwblk[0] = 0, afwblk[1] = 7fffffffeac0, afwblk[2] = 0, afwblk[3] = 0, afwblk[4] = 0, afwblk[5] = 0, afwblk[6] = 0, afwblk[7] = 5f747365745f6e75
writeDataToBlock:: PC = 4583671,  addr = 4351560, offset = 10, sameCmdDataDir? 1, size = 8, b4wblk[0] = 0, b4wblk[1] = 0, b4wblk[2] = 0, b4wblk[3] = 0, b4wblk[4] = 0, b4wblk[5] = 0, b4wblk[6] = 0, b4wblk[7] = 2f747365745f726f, data = 4d97bb, afwblk[0] = 0, afwblk[1] = 4d97bb, afwblk[2] = 0, afwblk[3] = 0, afwblk[4] = 0, afwblk[5] = 0, afwblk[6] = 0, afwblk[7] = 2f747365745f726f
writeDataToBlock:: PC = 4583676,  addr = 4351570, offset = 10, sameCmdDataDir? 1, size = 8, b4wblk[0] = 0, b4wblk[1] = 0, b4wblk[2] = 0, b4wblk[3] = 0, b4wblk[4] = 0, b4wblk[5] = 0, b4wblk[6] = 0, b4wblk[7] = 2d6c637374736574, data = 7fffffffeb82, afwblk[0] = 0, afwblk[1] = 7fffffffeb82, afwblk[2] = 0, afwblk[3] = 0, afwblk[4] = 0, afwblk[5] = 0, afwblk[6] = 0, afwblk[7] = 2d6c637374736574
system.mem_ctrls::access() Cmd: ReadExReq, DataDir: 2, CmdDir: 2, Size: 64, addr: 4350510, PC: 4583685, time: 355000
writeDataToBlock:: PC = 4583685,  addr = 4351510, offset = 10, sameCmdDataDir? 1, size = 8, b4wblk[0] = 0, b4wblk[1] = 0, b4wblk[2] = 0, b4wblk[3] = 0, b4wblk[4] = 0, b4wblk[5] = 67726f2e35, b4wblk[6] = 0, b4wblk[7] = 562f746962726464, data = 45f10a, afwblk[0] = 0, afwblk[1] = 45f10a, afwblk[2] = 0, afwblk[3] = 0, afwblk[4] = 0, afwblk[5] = 67726f2e35, afwblk[6] = 0, afwblk[7] = 562f746962726464
system.mem_ctrls::access() Cmd: ReadSharedReq, DataDir: 2, CmdDir: 2, Size: 64, addr: 3050150, PC: 4700016, time: 362000
setDataFromBlock:: PC = 4700016,  addr = 3053150, offset = 30, sameCmdDataDir? 1, size = 8, blk[0] = 12, blk[1] = 4a1d40, blk[2] = 46dd00, blk[3] = 5441465f4342494c, blk[4] = 0, blk[5] = 7200657a69732064, blk[6] = 0, blk[7] = 47c3da, data = 5441465f4342494c
system.mem_ctrls::access() Cmd: ReadSharedReq, DataDir: 2, CmdDir: 2, Size: 64, addr: 3050160, PC: 4700042, time: 370000
setDataFromBlock:: PC = 4700042,  addr = 3053160, offset = 30, sameCmdDataDir? 1, size = 8, blk[0] = 8, blk[1] = 46fd10, blk[2] = 46df90, blk[3] = 52454454535f4c41, blk[4] = 470530, blk[5] = 2928636f6c6c6165, blk[6] = 6620656c62756f64, blk[7] = 47c47a, data = 52454454535f4c41
system.mem_ctrls::access() Cmd: ReadSharedReq, DataDir: 2, CmdDir: 2, Size: 64, addr: 3050170, PC: 4700068, time: 378500
setDataFromBlock:: PC = 4700068,  addr = 3053170, offset = 30, sameCmdDataDir? 1, size = 8, blk[0] = 1a6000001aa, blk[1] = 46fc20, blk[2] = 46dd10, blk[3] = 2f7665642f005f52, blk[4] = 4707a0, blk[5] = 696c61766e69203a, blk[6] = 6320726f20656572, blk[7] = 47c4ca, data = 2f7665642f005f52
setDataFromBlock:: PC = 4700200,  addr = 4351510, offset = 10, sameCmdDataDir? 1, size = 8, blk[0] = 0, blk[1] = 45f10a, blk[2] = 0, blk[3] = 0, blk[4] = 0, blk[5] = 67726f2e35, blk[6] = 0, blk[7] = 562f746962726464, data = 45f10a
setDataFromBlock:: PC = 4583690,  addr = 4336310, offset = 60, sameCmdDataDir? 1, size = 8, blk[0] = 0, blk[1] = 0, blk[2] = 0, blk[3] = 0, blk[4] = 0, blk[5] = 0, blk[6] = 7fffffffedb8, blk[7] = 0, data = 7fffffffedb8
setDataFromBlock:: PC = 4583744,  addr = 3053150, offset = 30, sameCmdDataDir? 1, size = 1, blk[0] = 12, blk[1] = 4a1d40, blk[2] = 46dd00, blk[3] = 5441465f4342494c, blk[4] = 0, blk[5] = 7200657a69732064, blk[6] = 0, blk[7] = 47c3da, data = 4c
setDataFromBlock:: PC = 4583750,  addr = 3053151, offset = 31, sameCmdDataDir? 1, size = 1, blk[0] = 12, blk[1] = 4a1d40, blk[2] = 46dd00, blk[3] = 5441465f4342494c, blk[4] = 0, blk[5] = 7200657a69732064, blk[6] = 0, blk[7] = 47c3da, data = 49
setDataFromBlock:: PC = 4583757,  addr = 4356670, offset = 60, sameCmdDataDir? 1, size = 8, blk[0] = 0, blk[1] = 0, blk[2] = 0, blk[3] = 0, blk[4] = 0, blk[5] = 0, blk[6] = 0, blk[7] = 6272646461646461, data = 0
setDataFromBlock:: PC = 4583760,  addr = 3053150, offset = 30, sameCmdDataDir? 1, size = 2, blk[0] = 12, blk[1] = 4a1d40, blk[2] = 46dd00, blk[3] = 5441465f4342494c, blk[4] = 0, blk[5] = 7200657a69732064, blk[6] = 0, blk[7] = 47c3da, data = 494c
setDataFromBlock:: PC = 4583707,  addr = 4351530, offset = 10, sameCmdDataDir? 1, size = 8, blk[0] = 0, blk[1] = 4c2bcf, blk[2] = 0, blk[3] = 0, blk[4] = 0, blk[5] = 0, blk[6] = 0, blk[7] = 522f746942726464, data = 4c2bcf
setDataFromBlock:: PC = 4583712,  addr = 4351540, offset = 10, sameCmdDataDir? 1, size = 8, blk[0] = 0, blk[1] = 7fffffffeac0, blk[2] = 0, blk[3] = 0, blk[4] = 0, blk[5] = 0, blk[6] = 0, blk[7] = 5f747365745f6e75, data = 7fffffffeac0
setDataFromBlock:: PC = 4583717,  addr = 4351550, offset = 10, sameCmdDataDir? 1, size = 8, blk[0] = 0, blk[1] = 0, blk[2] = 0, blk[3] = 0, blk[4] = 0, blk[5] = 0, blk[6] = 0, blk[7] = 746365562f736270, data = 0
setDataFromBlock:: PC = 4583722,  addr = 4351560, offset = 10, sameCmdDataDir? 1, size = 8, blk[0] = 0, blk[1] = 4d97bb, blk[2] = 0, blk[3] = 0, blk[4] = 0, blk[5] = 0, blk[6] = 0, blk[7] = 2f747365745f726f, data = 4d97bb
setDataFromBlock:: PC = 4583727,  addr = 4351570, offset = 10, sameCmdDataDir? 1, size = 8, blk[0] = 0, blk[1] = 7fffffffeb82, blk[2] = 0, blk[3] = 0, blk[4] = 0, blk[5] = 0, blk[6] = 0, blk[7] = 2d6c637374736574, data = 7fffffffeb82
setDataFromBlock:: PC = 4583732,  addr = 4351600, offset = 10, sameCmdDataDir? 1, size = 8, blk[0] = 0, blk[1] = 1, blk[2] = 0, blk[3] = 0, blk[4] = 0, blk[5] = 0, blk[6] = 0, blk[7] = 6d6f682f006e6962, data = 1
setDataFromBlock:: PC = 4583741,  addr = 4351610, offset = 10, sameCmdDataDir? 1, size = 8, blk[0] = 0, blk[1] = 46ebad, blk[2] = 0, blk[3] = 0, blk[4] = 0, blk[5] = 0, blk[6] = 4001e9, blk[7] = 6a6d2f6c646d2f65, data = 46ebad
writeDataToBlock:: PC = 4647879,  addr = 4351610, offset = 10, sameCmdDataDir? 1, size = 8, b4wblk[0] = 0, b4wblk[1] = 46ebad, b4wblk[2] = 0, b4wblk[3] = 0, b4wblk[4] = 0, b4wblk[5] = 0, b4wblk[6] = 4001e9, b4wblk[7] = 6a6d2f6c646d2f65, data = 46ebcc, afwblk[0] = 0, afwblk[1] = 46ebcc, afwblk[2] = 0, afwblk[3] = 0, afwblk[4] = 0, afwblk[5] = 0, afwblk[6] = 4001e9, afwblk[7] = 6a6d2f6c646d2f65
setDataFromBlock:: PC = 4751116,  addr = 4351610, offset = 10, sameCmdDataDir? 1, size = 8, blk[0] = 0, blk[1] = 46ebcc, blk[2] = 0, blk[3] = 0, blk[4] = 0, blk[5] = 0, blk[6] = 4001e9, blk[7] = 6a6d2f6c646d2f65, data = 46ebcc
system.mem_ctrls::access() Cmd: ReadSharedReq, DataDir: 2, CmdDir: 2, Size: 64, addr: 3310670, PC: 4647896, time: 438000
setDataFromBlock:: PC = 4647896,  addr = 3313673, offset = 33, sameCmdDataDir? 1, size = 1, blk[0] = a72, blk[1] = 4b0b22, blk[2] = 4b172b, blk[3] = 6e75007325203a73, blk[4] = 796f727473656420, blk[5] = 6120746f6e6e6163, blk[6] = 4bdfe0, blk[7] = b4408, data = 25
writeDataToBlock:: PC = 4647903,  addr = 4351637, offset = 17, sameCmdDataDir? 1, size = 1, b4wblk[0] = 0, b4wblk[1] = 0, b4wblk[2] = 0, b4wblk[3] = 0, b4wblk[4] = 0, b4wblk[5] = 0, b4wblk[6] = 0, b4wblk[7] = 44326d654d2f354d, data = 25, afwblk[0] = 0, afwblk[1] = 2500000000000000, afwblk[2] = 0, afwblk[3] = 0, afwblk[4] = 0, afwblk[5] = 0, afwblk[6] = 0, afwblk[7] = 44326d654d2f354d
writeDataToBlock:: PC = 4647921,  addr = 4351630, offset = 10, sameCmdDataDir? 1, size = 4, b4wblk[0] = 0, b4wblk[1] = 2500000000000000, b4wblk[2] = 0, b4wblk[3] = 0, b4wblk[4] = 0, b4wblk[5] = 0, b4wblk[6] = 0, b4wblk[7] = 44326d654d2f354d, data = 0, afwblk[0] = 0, afwblk[1] = 2500000000000000, afwblk[2] = 0, afwblk[3] = 0, afwblk[4] = 0, afwblk[5] = 0, afwblk[6] = 0, afwblk[7] = 44326d654d2f354d
setDataFromBlock:: PC = 4647936,  addr = 3313673, offset = 33, sameCmdDataDir? 1, size = 1, blk[0] = a72, blk[1] = 4b0b22, blk[2] = 4b172b, blk[3] = 6e75007325203a73, blk[4] = 796f727473656420, blk[5] = 6120746f6e6e6163, blk[6] = 4bdfe0, blk[7] = b4408, data = 25
setDataFromBlock:: PC = 4647970,  addr = 3313674, offset = 34, sameCmdDataDir? 1, size = 1, blk[0] = a72, blk[1] = 4b0b22, blk[2] = 4b172b, blk[3] = 6e75007325203a73, blk[4] = 796f727473656420, blk[5] = 6120746f6e6e6163, blk[6] = 4bdfe0, blk[7] = b4408, data = 73
setDataFromBlock:: PC = 4647984,  addr = 4351637, offset = 17, sameCmdDataDir? 1, size = 1, blk[0] = 0, blk[1] = 2500000000000000, blk[2] = 0, blk[3] = 0, blk[4] = 0, blk[5] = 0, blk[6] = 0, blk[7] = 44326d654d2f354d, data = 25
setDataFromBlock:: PC = 4648080,  addr = 3313674, offset = 34, sameCmdDataDir? 1, size = 1, blk[0] = a72, blk[1] = 4b0b22, blk[2] = 4b172b, blk[3] = 6e75007325203a73, blk[4] = 796f727473656420, blk[5] = 6120746f6e6e6163, blk[6] = 4bdfe0, blk[7] = b4408, data = 73
setDataFromBlock:: PC = 4648086,  addr = 4354700, offset = 40, sameCmdDataDir? 1, size = 4, blk[0] = 0, blk[1] = 0, blk[2] = 0, blk[3] = 0, blk[4] = 3000000010, blk[5] = 0, blk[6] = 21, blk[7] = 5f315f30562f7469, data = 10
setDataFromBlock:: PC = 4648103,  addr = 4354720, offset = 40, sameCmdDataDir? 1, size = 8, blk[0] = 0, blk[1] = 0, blk[2] = 0, blk[3] = 0, blk[4] = 7fffffffe9e0, blk[5] = 0, blk[6] = 10, blk[7] = 745f6e75522f7469, data = 7fffffffe9e0
writeDataToBlock:: PC = 4648113,  addr = 4354700, offset = 40, sameCmdDataDir? 1, size = 4, b4wblk[0] = 0, b4wblk[1] = 0, b4wblk[2] = 0, b4wblk[3] = 0, b4wblk[4] = 3000000010, b4wblk[5] = 0, b4wblk[6] = 21, b4wblk[7] = 5f315f30562f7469, data = 18, afwblk[0] = 0, afwblk[1] = 0, afwblk[2] = 0, afwblk[3] = 0, afwblk[4] = 3000000018, afwblk[5] = 0, afwblk[6] = 21, afwblk[7] = 5f315f30562f7469
setDataFromBlock:: PC = 4648119,  addr = 4354760, offset = 40, sameCmdDataDir? 1, size = 8, blk[0] = 0, blk[1] = 0, blk[2] = 0, blk[3] = 0, blk[4] = 4c2bcf, blk[5] = 0, blk[6] = 11, blk[7] = 6e69622d6c6373, data = 4c2bcf
writeDataToBlock:: PC = 4648129,  addr = 4351620, offset = 10, sameCmdDataDir? 1, size = 8, b4wblk[0] = 0, b4wblk[1] = 0, b4wblk[2] = 0, b4wblk[3] = 0, b4wblk[4] = 0, b4wblk[5] = 0, b4wblk[6] = 7fffffffed98, b4wblk[7] = 45472f383638356c, data = 4c2bcf, afwblk[0] = 0, afwblk[1] = 4c2bcf, afwblk[2] = 0, afwblk[3] = 0, afwblk[4] = 0, afwblk[5] = 0, afwblk[6] = 7fffffffed98, afwblk[7] = 45472f383638356c
writeDataToBlock:: PC = 4648136,  addr = 4351610, offset = 10, sameCmdDataDir? 1, size = 8, b4wblk[0] = 0, b4wblk[1] = 46ebcc, b4wblk[2] = 0, b4wblk[3] = 0, b4wblk[4] = 0, b4wblk[5] = 0, b4wblk[6] = 4001e9, b4wblk[7] = 6a6d2f6c646d2f65, data = 46eccd, afwblk[0] = 0, afwblk[1] = 46eccd, afwblk[2] = 0, afwblk[3] = 0, afwblk[4] = 0, afwblk[5] = 0, afwblk[6] = 4001e9, afwblk[7] = 6a6d2f6c646d2f65
system.mem_ctrls::access() Cmd: ReadSharedReq, DataDir: 2, CmdDir: 2, Size: 64, addr: 3020710, PC: 4699984, time: 483000
setDataFromBlock:: PC = 4699984,  addr = 3025717, offset = 57, sameCmdDataDir? 1, size = 1, blk[0] = 26260074736e6f63, blk[1] = 61656c6f6f62006c, blk[2] = fff8f37efff8f376, blk[3] = fff908bcfff908bc, blk[4] = fff9054cfff9054c, blk[5] = 4600657361656c65, blk[6] = 0, blk[7] = 4c3440, data = 46
system.mem_ctrls::access() Cmd: ReadSharedReq, DataDir: 2, CmdDir: 2, Size: 64, addr: 3020720, PC: 4700016, time: 490000
setDataFromBlock:: PC = 4700016,  addr = 3025720, offset = 50, sameCmdDataDir? 1, size = 8, blk[0] = 78656c706d6f6300, blk[1] = 6c0065747962006e, blk[2] = fff8f40afff8f3e9, blk[3] = fff9087cfff908bc, blk[4] = fff9054cfff9054c, blk[5] = 656b203a4c415441, blk[6] = 0, blk[7] = 0, data = 656b203a4c415441
system.mem_ctrls::access() Cmd: ReadSharedReq, DataDir: 2, CmdDir: 2, Size: 64, addr: 3020730, PC: 4700042, time: 498000
setDataFromBlock:: PC = 4700042,  addr = 3025730, offset = 50, sameCmdDataDir? 1, size = 8, blk[0] = 6e6967616d690020, blk[1] = 62756f6420676e6f, blk[2] = fff8f44bfff8f42b, blk[3] = fff9086cfff9086c, blk[4] = fff9054cfff9054c, blk[5] = 6f6f74206c656e72, blk[6] = 0, blk[7] = 4c3454, data = 6f6f74206c656e72
system.mem_ctrls::access() Cmd: ReadSharedReq, DataDir: 2, CmdDir: 2, Size: 64, addr: 3020740, PC: 4700068, time: 506500
setDataFromBlock:: PC = 4700068,  addr = 3025740, offset = 50, sameCmdDataDir? 1, size = 8, blk[0] = 2a3a3a0020797261, blk[1] = 74616f6c6600656c, blk[2] = fff8f510fff8f4c8, blk[3] = fff9086cfff9086c, blk[4] = fff9054cfff9054c, blk[5] = a646c6f20, blk[6] = 0, blk[7] = 4c3460, data = a646c6f20
setDataFromBlock:: PC = 4700200,  addr = 4351610, offset = 10, sameCmdDataDir? 1, size = 8, blk[0] = 0, blk[1] = 46eccd, blk[2] = 0, blk[3] = 0, blk[4] = 0, blk[5] = 0, blk[6] = 4001e9, blk[7] = 6a6d2f6c646d2f65, data = 46eccd
setDataFromBlock:: PC = 4648141,  addr = 4351620, offset = 10, sameCmdDataDir? 1, size = 8, blk[0] = 0, blk[1] = 4c2bcf, blk[2] = 0, blk[3] = 0, blk[4] = 0, blk[5] = 0, blk[6] = 7fffffffed98, blk[7] = 45472f383638356c, data = 4c2bcf
setDataFromBlock:: PC = 4648009,  addr = 4351630, offset = 10, sameCmdDataDir? 1, size = 4, blk[0] = 0, blk[1] = 2500000000000000, blk[2] = 0, blk[3] = 0, blk[4] = 0, blk[5] = 0, blk[6] = 0, blk[7] = 44326d654d2f354d, data = 0
writeDataToBlock:: PC = 4648029,  addr = 4351560, offset = 10, sameCmdDataDir? 1, size = 8, b4wblk[0] = 0, b4wblk[1] = 4d97bb, b4wblk[2] = 0, b4wblk[3] = 0, b4wblk[4] = 0, b4wblk[5] = 0, b4wblk[6] = 0, b4wblk[7] = 2f747365745f726f, data = 0, afwblk[0] = 0, afwblk[1] = 0, afwblk[2] = 0, afwblk[3] = 0, afwblk[4] = 0, afwblk[5] = 0, afwblk[6] = 0, afwblk[7] = 2f747365745f726f
writeDataToBlock:: PC = 4648033,  addr = 4351540, offset = 10, sameCmdDataDir? 1, size = 8, b4wblk[0] = 0, b4wblk[1] = 7fffffffeac0, b4wblk[2] = 0, b4wblk[3] = 0, b4wblk[4] = 0, b4wblk[5] = 0, b4wblk[6] = 0, b4wblk[7] = 5f747365745f6e75, data = 4c2bcf, afwblk[0] = 0, afwblk[1] = 4c2bcf, afwblk[2] = 0, afwblk[3] = 0, afwblk[4] = 0, afwblk[5] = 0, afwblk[6] = 0, afwblk[7] = 5f747365745f6e75
writeDataToBlock:: PC = 4648039,  addr = 4351550, offset = 10, sameCmdDataDir? 1, size = 8, b4wblk[0] = 0, b4wblk[1] = 0, b4wblk[2] = 0, b4wblk[3] = 0, b4wblk[4] = 0, b4wblk[5] = 0, b4wblk[6] = 0, b4wblk[7] = 746365562f736270, data = 16, afwblk[0] = 0, afwblk[1] = 16, afwblk[2] = 0, afwblk[3] = 0, afwblk[4] = 0, afwblk[5] = 0, afwblk[6] = 0, afwblk[7] = 746365562f736270
setDataFromBlock:: PC = 4648043,  addr = 3313675, offset = 35, sameCmdDataDir? 1, size = 1, blk[0] = a72, blk[1] = 4b0b22, blk[2] = 4b172b, blk[3] = 6e75007325203a73, blk[4] = 796f727473656420, blk[5] = 6120746f6e6e6163, blk[6] = 4bdfe0, blk[7] = b4408, data = 0
writeDataToBlock:: PC = 4648046,  addr = 4351637, offset = 17, sameCmdDataDir? 1, size = 1, b4wblk[0] = 0, b4wblk[1] = 2500000000000000, b4wblk[2] = 0, b4wblk[3] = 0, b4wblk[4] = 0, b4wblk[5] = 0, b4wblk[6] = 0, b4wblk[7] = 44326d654d2f354d, data = 0, afwblk[0] = 0, afwblk[1] = 0, afwblk[2] = 0, afwblk[3] = 0, afwblk[4] = 0, afwblk[5] = 0, afwblk[6] = 0, afwblk[7] = 44326d654d2f354d
setDataFromBlock:: PC = 4648052,  addr = 4351637, offset = 17, sameCmdDataDir? 1, size = 1, blk[0] = 0, blk[1] = 0, blk[2] = 0, blk[3] = 0, blk[4] = 0, blk[5] = 0, blk[6] = 0, blk[7] = 44326d654d2f354d, data = 0
setDataFromBlock:: PC = 4648163,  addr = 4351630, offset = 10, sameCmdDataDir? 1, size = 4, blk[0] = 0, blk[1] = 0, blk[2] = 0, blk[3] = 0, blk[4] = 0, blk[5] = 0, blk[6] = 0, blk[7] = 44326d654d2f354d, data = 0
setDataFromBlock:: PC = 4648170,  addr = 4351630, offset = 10, sameCmdDataDir? 1, size = 4, blk[0] = 0, blk[1] = 0, blk[2] = 0, blk[3] = 0, blk[4] = 0, blk[5] = 0, blk[6] = 0, blk[7] = 44326d654d2f354d, data = 0
setDataFromBlock:: PC = 4648224,  addr = 4351540, offset = 10, sameCmdDataDir? 1, size = 8, blk[0] = 0, blk[1] = 4c2bcf, blk[2] = 0, blk[3] = 0, blk[4] = 0, blk[5] = 0, blk[6] = 0, blk[7] = 5f747365745f6e75, data = 4c2bcf
system.mem_ctrls::access() Cmd: ReadExReq, DataDir: 2, CmdDir: 2, Size: 64, addr: 4350500, PC: 4648231, time: 563500
writeDataToBlock:: PC = 4648231,  addr = 4351500, offset = 10, sameCmdDataDir? 1, size = 8, b4wblk[0] = 0, b4wblk[1] = 0, b4wblk[2] = 0, b4wblk[3] = 0, b4wblk[4] = 0, b4wblk[5] = 6d65672e6d697300, b4wblk[6] = 0, b4wblk[7] = 616464615f315f30, data = 4c2bcf, afwblk[0] = 0, afwblk[1] = 4c2bcf, afwblk[2] = 0, afwblk[3] = 0, afwblk[4] = 0, afwblk[5] = 6d65672e6d697300, afwblk[6] = 0, afwblk[7] = 616464615f315f30
setDataFromBlock:: PC = 4648234,  addr = 4351550, offset = 10, sameCmdDataDir? 1, size = 8, blk[0] = 0, blk[1] = 16, blk[2] = 0, blk[3] = 0, blk[4] = 0, blk[5] = 0, blk[6] = 0, blk[7] = 746365562f736270, data = 16
writeDataToBlock:: PC = 4648239,  addr = 4351510, offset = 10, sameCmdDataDir? 1, size = 8, b4wblk[0] = 0, b4wblk[1] = 45f10a, b4wblk[2] = 0, b4wblk[3] = 0, b4wblk[4] = 0, b4wblk[5] = 67726f2e35, b4wblk[6] = 0, b4wblk[7] = 562f746962726464, data = 16, afwblk[0] = 0, afwblk[1] = 16, afwblk[2] = 0, afwblk[3] = 0, afwblk[4] = 0, afwblk[5] = 67726f2e35, afwblk[6] = 0, afwblk[7] = 562f746962726464
setDataFromBlock:: PC = 4648243,  addr = 4351550, offset = 10, sameCmdDataDir? 1, size = 8, blk[0] = 0, blk[1] = 16, blk[2] = 0, blk[3] = 0, blk[4] = 0, blk[5] = 0, blk[6] = 0, blk[7] = 746365562f736270, data = 16
setDataFromBlock:: PC = 4648255,  addr = 4351560, offset = 10, sameCmdDataDir? 1, size = 8, blk[0] = 0, blk[1] = 0, blk[2] = 0, blk[3] = 0, blk[4] = 0, blk[5] = 0, blk[6] = 0, blk[7] = 2f747365745f726f, data = 0
system.mem_ctrls::access() Cmd: ReadExReq, DataDir: 2, CmdDir: 2, Size: 64, addr: 4350470, PC: 4648325, time: 586000
writeDataToBlock:: PC = 4648325,  addr = 4351470, offset = 10, sameCmdDataDir? 1, size = 8, b4wblk[0] = 0, b4wblk[1] = 0, b4wblk[2] = 0, b4wblk[3] = 0, b4wblk[4] = 0, b4wblk[5] = 0, b4wblk[6] = 0, b4wblk[7] = 765f6d656d64322f, data = 46ed8a, afwblk[0] = 0, afwblk[1] = 46ed8a, afwblk[2] = 0, afwblk[3] = 0, afwblk[4] = 0, afwblk[5] = 0, afwblk[6] = 0, afwblk[7] = 765f6d656d64322f
system.mem_ctrls::access() Cmd: ReadExReq, DataDir: 2, CmdDir: 2, Size: 64, addr: 4350420, PC: 4754384, time: 591000
writeDataToBlock:: PC = 4754384,  addr = 4351420, offset = 10, sameCmdDataDir? 1, size = 8, b4wblk[0] = 0, b4wblk[1] = 0, b4wblk[2] = 0, b4wblk[3] = 0, b4wblk[4] = 0, b4wblk[5] = 0, b4wblk[6] = 0, b4wblk[7] = 646d2f656d6f682f, data = 7fffffffeac0, afwblk[0] = 0, afwblk[1] = 7fffffffeac0, afwblk[2] = 0, afwblk[3] = 0, afwblk[4] = 0, afwblk[5] = 0, afwblk[6] = 0, afwblk[7] = 646d2f656d6f682f
system.mem_ctrls::access() Cmd: ReadExReq, DataDir: 2, CmdDir: 2, Size: 64, addr: 4350430, PC: 4754389, time: 592000
writeDataToBlock:: PC = 4754389,  addr = 4351430, offset = 10, sameCmdDataDir? 1, size = 8, b4wblk[0] = 0, b4wblk[1] = 0, b4wblk[2] = 0, b4wblk[3] = 0, b4wblk[4] = 0, b4wblk[5] = 0, b4wblk[6] = 0, b4wblk[7] = 3638356c6a6d2f6c, data = 14, afwblk[0] = 0, afwblk[1] = 14, afwblk[2] = 0, afwblk[3] = 0, afwblk[4] = 0, afwblk[5] = 0, afwblk[6] = 0, afwblk[7] = 3638356c6a6d2f6c
system.mem_ctrls::access() Cmd: ReadExReq, DataDir: 2, CmdDir: 2, Size: 64, addr: 4350450, PC: 4754396, time: 593500
writeDataToBlock:: PC = 4754396,  addr = 4351450, offset = 10, sameCmdDataDir? 1, size = 8, b4wblk[0] = 0, b4wblk[1] = 0, b4wblk[2] = 0, b4wblk[3] = 0, b4wblk[4] = 0, b4wblk[5] = 0, b4wblk[6] = 0, b4wblk[7] = 77654e2f44326d65, data = 3, afwblk[0] = 0, afwblk[1] = 3, afwblk[2] = 0, afwblk[3] = 0, afwblk[4] = 0, afwblk[5] = 0, afwblk[6] = 0, afwblk[7] = 77654e2f44326d65
system.mem_ctrls::access() Cmd: ReadExReq, DataDir: 2, CmdDir: 2, Size: 64, addr: 4350460, PC: 4754401, time: 594000
writeDataToBlock:: PC = 4754401,  addr = 4351460, offset = 10, sameCmdDataDir? 1, size = 8, b4wblk[0] = 0, b4wblk[1] = 0, b4wblk[2] = 0, b4wblk[3] = 0, b4wblk[4] = 0, b4wblk[5] = 0, b4wblk[6] = 0, b4wblk[7] = 6e6f69737265565f, data = 1, afwblk[0] = 0, afwblk[1] = 1, afwblk[2] = 0, afwblk[3] = 0, afwblk[4] = 0, afwblk[5] = 0, afwblk[6] = 0, afwblk[7] = 6e6f69737265565f
system.mem_ctrls::access() Cmd: ReadExReq, DataDir: 2, CmdDir: 2, Size: 64, addr: 4350410, PC: 4754409, time: 595500
writeDataToBlock:: PC = 4754409,  addr = 4351410, offset = 10, sameCmdDataDir? 1, size = 8, b4wblk[0] = 0, b4wblk[1] = 0, b4wblk[2] = 0, b4wblk[3] = 0, b4wblk[4] = 0, b4wblk[5] = 0, b4wblk[6] = 0, b4wblk[7] = 0, data = 3, afwblk[0] = 0, afwblk[1] = 3, afwblk[2] = 0, afwblk[3] = 0, afwblk[4] = 0, afwblk[5] = 0, afwblk[6] = 0, afwblk[7] = 0
system.mem_ctrls::access() Cmd: ReadExReq, DataDir: 2, CmdDir: 2, Size: 64, addr: 4350440, PC: 4754414, time: 596500
writeDataToBlock:: PC = 4754414,  addr = 4351440, offset = 10, sameCmdDataDir? 1, size = 8, b4wblk[0] = 0, b4wblk[1] = 0, b4wblk[2] = 0, b4wblk[3] = 0, b4wblk[4] = 0, b4wblk[5] = 0, b4wblk[6] = 0, b4wblk[7] = 4d2f354d45472f38, data = 4d97bb, afwblk[0] = 0, afwblk[1] = 4d97bb, afwblk[2] = 0, afwblk[3] = 0, afwblk[4] = 0, afwblk[5] = 0, afwblk[6] = 0, afwblk[7] = 4d2f354d45472f38
system.mem_ctrls::access() Cmd: ReadExReq, DataDir: 2, CmdDir: 2, Size: 64, addr: 4350110, PC: 4754439, time: 601000
writeDataToBlock:: PC = 4754439,  addr = 4351110, offset = 10, sameCmdDataDir? 1, size = 8, b4wblk[0] = 0, b4wblk[1] = 0, b4wblk[2] = 0, b4wblk[3] = 0, b4wblk[4] = 0, b4wblk[5] = 0, b4wblk[6] = 0, b4wblk[7] = 0, data = 4d97bb, afwblk[0] = 0, afwblk[1] = 4d97bb, afwblk[2] = 0, afwblk[3] = 0, afwblk[4] = 0, afwblk[5] = 0, afwblk[6] = 0, afwblk[7] = 0
writeDataToBlock:: PC = 4754447,  addr = 4351360, offset = 10, sameCmdDataDir? 1, size = 8, b4wblk[0] = 0, b4wblk[1] = 0, b4wblk[2] = 0, b4wblk[3] = 0, b4wblk[4] = 0, b4wblk[5] = 7fffffffeda8, b4wblk[6] = 0, b4wblk[7] = 0, data = 0, afwblk[0] = 0, afwblk[1] = 0, afwblk[2] = 0, afwblk[3] = 0, afwblk[4] = 0, afwblk[5] = 7fffffffeda8, afwblk[6] = 0, afwblk[7] = 0
writeDataToBlock:: PC = 4754459,  addr = 4351350, offset = 10, sameCmdDataDir? 1, size = 8, b4wblk[0] = 0, b4wblk[1] = 0, b4wblk[2] = 0, b4wblk[3] = 0, b4wblk[4] = 0, b4wblk[5] = 100000000, b4wblk[6] = 0, b4wblk[7] = 0, data = 0, afwblk[0] = 0, afwblk[1] = 0, afwblk[2] = 0, afwblk[3] = 0, afwblk[4] = 0, afwblk[5] = 100000000, afwblk[6] = 0, afwblk[7] = 0
