gem5 Simulator System.  http://gem5.org
gem5 is copyrighted software; use the --copyright option for details.

gem5 compiled Apr 24 2017 01:02:20
gem5 started Apr 24 2017 01:07:12
gem5 executing on shai.cse.psu.edu, pid 20561
command line: /home/mdl/mjl5868/GEM5/Mem2D/New_Version/2dmem_v0_1_addaddrbit/V0_1_AddAddrBit/gem5/build/X86/gem5.opt --redirect-stdout --stdout-file=build_test_Apr23_2017.gemout --redirect-stderr --stderr-file=build_test_Apr23_2017.gemerr --stats-file=build_test_Apr23_2017.stat /home/mdl/mjl5868/GEM5/Mem2D/New_Version/2dmem_v0_1_addaddrbit/V0_1_AddAddrBit/gem5/configs/example/se.py --output=build_test_Apr23_2017.appout --errout=build_test_Apr23_2017.apperr -c /home/mdl/mjl5868/GEM5/Mem2D/New_Version/2dmem_v0_1_addaddrbit/V0_1_AddAddrBit/Run_test_pbs/Vector_test/testscl-bin --caches --l2cache --cpu-type=atomic --MJL_row_width=8 --MJL_PC2DirFile=test.txt

Global frequency set at 1000000000000 ticks per second
system.cpu.dcache.tags::MJL_rowWidth = 8
system.cpu.dcache::MJL_rowWidth = 8
system.cpu.dcache::MJL_PC2DirFilname = test.txt
MJL_Error: Could not open test input file!
After reading the file
system.cpu.dtb_walker_cache.tags::MJL_rowWidth = 8
system.cpu.dtb_walker_cache::MJL_rowWidth = 8
system.cpu.dtb_walker_cache::MJL_PC2DirFilname = PC2Dir.txt
system.cpu.icache.tags::MJL_rowWidth = 8
system.cpu.icache::MJL_rowWidth = 8
system.cpu.icache::MJL_PC2DirFilname = PC2Dir.txt
system.cpu.itb_walker_cache.tags::MJL_rowWidth = 8
system.cpu.itb_walker_cache::MJL_rowWidth = 8
system.cpu.itb_walker_cache::MJL_PC2DirFilname = PC2Dir.txt
system.l2.tags::MJL_rowWidth = 8
system.l2::MJL_rowWidth = 8
system.l2::MJL_PC2DirFilname = PC2Dir.txt
**** REAL SIMULATION ****
info: Entering event queue @ 0.  Starting simulation...
system.mem_ctrls::access() Cmd: ReadSharedReq, DataDir: 1, CmdDir: 1, Size: 64, addr: 4356600, PC: 4194757, time: 1000
setDataFromBlock:: PC = 4194757,  addr = 4356600, sameCmdDataDir? 1, size = 64, data = word[0] = 0, word[1] = 0, word[2] = 0, word[3] = 0, word[4] = 1, word[5] = 7fffffffef10, word[6] = 0, word[7] = 0, 
setDataFromBlock:: PC = 4194757,  addr = 4356640, sameCmdDataDir? 1, size = 8, data = word[0] = 1, 
writeDataToBlock:: PC = 4194765,  addr = 4356630, sameCmdDataDir? 1, size = 8, data = word[0] = 0, 
writeDataToBlock:: PC = 4194766,  addr = 4356620, sameCmdDataDir? 1, size = 8, data = word[0] = 7fffffffed98, 
writeDataToBlock:: PC = 4194788,  addr = 4356610, sameCmdDataDir? 1, size = 8, data = word[0] = 4001e9, 
writeDataToBlock:: PC = 4546768,  addr = 4356600, sameCmdDataDir? 1, size = 8, data = word[0] = 0, 
system.mem_ctrls::access() Cmd: ReadExReq, DataDir: 1, CmdDir: 1, Size: 64, addr: 4356500, PC: 4546775, time: 14500
setDataFromBlock:: PC = 4546775,  addr = 4356500, sameCmdDataDir? 1, size = 64, data = word[0] = 0, word[1] = 0, word[2] = 0, word[3] = 0, word[4] = 0, word[5] = 0, word[6] = 0, word[7] = 0, 
writeDataToBlock:: PC = 4546775,  addr = 4356570, sameCmdDataDir? 1, size = 8, data = word[0] = 0, 
writeDataToBlock:: PC = 4546777,  addr = 4356560, sameCmdDataDir? 1, size = 8, data = word[0] = 0, 
writeDataToBlock:: PC = 4546779,  addr = 4356550, sameCmdDataDir? 1, size = 8, data = word[0] = 0, 
writeDataToBlock:: PC = 4546784,  addr = 4356540, sameCmdDataDir? 1, size = 8, data = word[0] = 0, 
writeDataToBlock:: PC = 4546788,  addr = 4356530, sameCmdDataDir? 1, size = 8, data = word[0] = 0, 
system.mem_ctrls::access() Cmd: ReadExReq, DataDir: 1, CmdDir: 1, Size: 64, addr: 4355300, PC: 4546802, time: 23000
setDataFromBlock:: PC = 4546802,  addr = 4355300, sameCmdDataDir? 1, size = 64, data = word[0] = 0, word[1] = 0, word[2] = 0, word[3] = 0, word[4] = 0, word[5] = 0, word[6] = 0, word[7] = 0, 
writeDataToBlock:: PC = 4546802,  addr = 4355370, sameCmdDataDir? 1, size = 8, data = word[0] = 4003b2, 
writeDataToBlock:: PC = 4546807,  addr = 4355354, sameCmdDataDir? 1, size = 4, data = word[0] = 1, 
writeDataToBlock:: PC = 4546811,  addr = 4355360, sameCmdDataDir? 1, size = 8, data = word[0] = 7fffffffeda8, 
system.mem_ctrls::access() Cmd: ReadExReq, DataDir: 1, CmdDir: 1, Size: 64, addr: 4052100, PC: 4546830, time: 27500
setDataFromBlock:: PC = 4546830,  addr = 4052100, sameCmdDataDir? 1, size = 64, data = word[0] = 0, word[1] = 0, word[2] = 1, word[3] = 0, word[4] = 0, word[5] = 1, word[6] = 0, word[7] = 0, 
writeDataToBlock:: PC = 4546830,  addr = 4052150, sameCmdDataDir? 1, size = 4, data = word[0] = 0, 
setDataFromBlock:: PC = 4546836,  addr = 4355354, sameCmdDataDir? 1, size = 4, data = word[0] = 1, 
setDataFromBlock:: PC = 4546841,  addr = 4355360, sameCmdDataDir? 1, size = 8, data = word[0] = 7fffffffeda8, 
setDataFromBlock:: PC = 4546851,  addr = 4356620, sameCmdDataDir? 1, size = 8, data = word[0] = 7fffffffed98, 
system.mem_ctrls::access() Cmd: ReadExReq, DataDir: 1, CmdDir: 1, Size: 64, addr: 4336300, PC: 4546859, time: 33000
setDataFromBlock:: PC = 4546859,  addr = 4336300, sameCmdDataDir? 1, size = 64, data = word[0] = 0, word[1] = 0, word[2] = 0, word[3] = 0, word[4] = 0, word[5] = 0, word[6] = 0, word[7] = 0, 
writeDataToBlock:: PC = 4546859,  addr = 4336310, sameCmdDataDir? 1, size = 8, data = word[0] = 7fffffffedb8, 
system.mem_ctrls::access() Cmd: ReadExReq, DataDir: 1, CmdDir: 1, Size: 64, addr: 4040500, PC: 4546866, time: 34500
setDataFromBlock:: PC = 4546866,  addr = 4040500, sameCmdDataDir? 1, size = 64, data = word[0] = 0, word[1] = 1, word[2] = 1000000, word[3] = 0, word[4] = 0, word[5] = 0, word[6] = 0, word[7] = 0, 
writeDataToBlock:: PC = 4546866,  addr = 4040500, sameCmdDataDir? 1, size = 8, data = word[0] = 7fffffffed98, 
setDataFromBlock:: PC = 4546880,  addr = 4356670, sameCmdDataDir? 1, size = 8, data = word[0] = 0, 
writeDataToBlock:: PC = 4546892,  addr = 4355330, sameCmdDataDir? 1, size = 8, data = word[0] = 456151, 
writeDataToBlock:: PC = 4764992,  addr = 4355320, sameCmdDataDir? 1, size = 8, data = word[0] = 0, 
system.mem_ctrls::access() Cmd: ReadSharedReq, DataDir: 1, CmdDir: 1, Size: 64, addr: 4356700, PC: 4764994, time: 43500
setDataFromBlock:: PC = 4764994,  addr = 4356700, sameCmdDataDir? 1, size = 64, data = word[0] = 21, word[1] = ffffffffff600000, word[2] = 10, word[3] = 78bfbff, word[4] = 6, word[5] = 1000, word[6] = 11, word[7] = 64, 
setDataFromBlock:: PC = 4764994,  addr = 4356700, sameCmdDataDir? 1, size = 8, data = word[0] = 21, 
writeDataToBlock:: PC = 4764997,  addr = 4355310, sameCmdDataDir? 1, size = 8, data = word[0] = 0, 
writeDataToBlock:: PC = 4765002,  addr = 4355300, sameCmdDataDir? 1, size = 8, data = word[0] = 456aa0, 
system.mem_ctrls::access() Cmd: ReadExReq, DataDir: 1, CmdDir: 1, Size: 64, addr: 4355200, PC: 4765003, time: 47000
setDataFromBlock:: PC = 4765003,  addr = 4355200, sameCmdDataDir? 1, size = 64, data = word[0] = 0, word[1] = 0, word[2] = 0, word[3] = 0, word[4] = 0, word[5] = 0, word[6] = 0, word[7] = 0, 
writeDataToBlock:: PC = 4765003,  addr = 4355270, sameCmdDataDir? 1, size = 8, data = word[0] = 456ae0, 
system.mem_ctrls::access() Cmd: ReadSharedReq, DataDir: 1, CmdDir: 1, Size: 64, addr: 4345300, PC: 4765010, time: 51000
setDataFromBlock:: PC = 4765010,  addr = 4345300, sameCmdDataDir? 1, size = 64, data = word[0] = 0, word[1] = 0, word[2] = 0, word[3] = 0, word[4] = 0, word[5] = 0, word[6] = 0, word[7] = 0, 
setDataFromBlock:: PC = 4765010,  addr = 4345360, sameCmdDataDir? 1, size = 8, data = word[0] = 0, 
system.mem_ctrls::access() Cmd: ReadSharedReq, DataDir: 1, CmdDir: 1, Size: 64, addr: 4345600, PC: 4765017, time: 52000
setDataFromBlock:: PC = 4765017,  addr = 4345600, sameCmdDataDir? 1, size = 64, data = word[0] = 0, word[1] = 0, word[2] = 0, word[3] = 0, word[4] = 0, word[5] = 0, word[6] = 0, word[7] = 0, 
setDataFromBlock:: PC = 4765017,  addr = 4345660, sameCmdDataDir? 1, size = 4, data = word[0] = 0, 
setDataFromBlock:: PC = 4765026,  addr = 4345350, sameCmdDataDir? 1, size = 8, data = word[0] = 0, 
system.mem_ctrls::access() Cmd: ReadSharedReq, DataDir: 1, CmdDir: 1, Size: 64, addr: 4345500, PC: 4765033, time: 55000
setDataFromBlock:: PC = 4765033,  addr = 4345500, sameCmdDataDir? 1, size = 64, data = word[0] = 0, word[1] = 0, word[2] = 0, word[3] = 0, word[4] = 0, word[5] = 0, word[6] = 0, word[7] = 0, 
setDataFromBlock:: PC = 4765033,  addr = 4345570, sameCmdDataDir? 1, size = 8, data = word[0] = 0, 
system.mem_ctrls::access() Cmd: ReadSharedReq, DataDir: 1, CmdDir: 1, Size: 64, addr: 4343200, PC: 4765042, time: 57000
setDataFromBlock:: PC = 4765042,  addr = 4343200, sameCmdDataDir? 1, size = 64, data = word[0] = 0, word[1] = 0, word[2] = 0, word[3] = 0, word[4] = 0, word[5] = 0, word[6] = 0, word[7] = 0, 
setDataFromBlock:: PC = 4765042,  addr = 4343260, sameCmdDataDir? 1, size = 8, data = word[0] = 0, 
setDataFromBlock:: PC = 4765049,  addr = 4345650, sameCmdDataDir? 1, size = 8, data = word[0] = 0, 
setDataFromBlock:: PC = 4765058,  addr = 4040510, sameCmdDataDir? 1, size = 4, data = word[0] = 1, 
system.mem_ctrls::access() Cmd: ReadSharedReq, DataDir: 1, CmdDir: 1, Size: 64, addr: 4345700, PC: 4765065, time: 61000
setDataFromBlock:: PC = 4765065,  addr = 4345700, sameCmdDataDir? 1, size = 64, data = word[0] = 0, word[1] = 0, word[2] = 0, word[3] = 0, word[4] = 0, word[5] = 0, word[6] = 0, word[7] = 0, 
setDataFromBlock:: PC = 4765065,  addr = 4345760, sameCmdDataDir? 1, size = 4, data = word[0] = 0, 
system.mem_ctrls::access() Cmd: ReadSharedReq, DataDir: 1, CmdDir: 1, Size: 64, addr: 3103000, PC: 4765082, time: 65500
setDataFromBlock:: PC = 4765082,  addr = 3103000, sameCmdDataDir? 1, size = 64, data = word[0] = 48b5b0, word[1] = 48b5b0, word[2] = 48b5b0, word[3] = 48b5b0, word[4] = 48b5b0, word[5] = 48b5b0, word[6] = 48b628, word[7] = 706d742f7261762f, 
setDataFromBlock:: PC = 4765082,  addr = 3103060, sameCmdDataDir? 1, size = 8, data = word[0] = 48b628, 
setDataFromBlock:: PC = 4765224,  addr = 4356710, sameCmdDataDir? 1, size = 8, data = word[0] = ffffffffff600000, 
setDataFromBlock:: PC = 4765232,  addr = 4356720, sameCmdDataDir? 1, size = 8, data = word[0] = 10, 
system.mem_ctrls::access() Cmd: ReadSharedReq, DataDir: 1, CmdDir: 1, Size: 64, addr: 3102600, PC: 4765082, time: 75000
setDataFromBlock:: PC = 4765082,  addr = 3102600, sameCmdDataDir? 1, size = 64, data = word[0] = 48b708, word[1] = 48b6e8, word[2] = 48b6c8, word[3] = 48b6a8, word[4] = 48b5b0, word[5] = 48b688, word[6] = 48b668, word[7] = 48b5b0, 
setDataFromBlock:: PC = 4765082,  addr = 3102650, sameCmdDataDir? 1, size = 8, data = word[0] = 48b688, 
setDataFromBlock:: PC = 4765320,  addr = 4356730, sameCmdDataDir? 1, size = 8, data = word[0] = 78bfbff, 
setDataFromBlock:: PC = 4765328,  addr = 4356740, sameCmdDataDir? 1, size = 8, data = word[0] = 6, 
system.mem_ctrls::access() Cmd: ReadSharedReq, DataDir: 1, CmdDir: 1, Size: 64, addr: 3102500, PC: 4765082, time: 84500
setDataFromBlock:: PC = 4765082,  addr = 3102500, sameCmdDataDir? 1, size = 64, data = word[0] = 48b748, word[1] = 48b5b0, word[2] = 48b728, word[3] = 48b5a8, word[4] = 48b5b0, word[5] = 48b5b0, word[6] = 48b5b0, word[7] = 48b5b0, 
setDataFromBlock:: PC = 4765082,  addr = 3102530, sameCmdDataDir? 1, size = 8, data = word[0] = 48b5a8, 
setDataFromBlock:: PC = 4765096,  addr = 4356750, sameCmdDataDir? 1, size = 8, data = word[0] = 1000, 
setDataFromBlock:: PC = 4765108,  addr = 4356760, sameCmdDataDir? 1, size = 8, data = word[0] = 11, 
setDataFromBlock:: PC = 4765082,  addr = 3102660, sameCmdDataDir? 1, size = 8, data = word[0] = 48b668, 
setDataFromBlock:: PC = 4765288,  addr = 4356770, sameCmdDataDir? 1, size = 4, data = word[0] = 64, 
system.mem_ctrls::access() Cmd: ReadSharedReq, DataDir: 1, CmdDir: 1, Size: 64, addr: 4357000, PC: 4765296, time: 97000
setDataFromBlock:: PC = 4765296,  addr = 4357000, sameCmdDataDir? 1, size = 64, data = word[0] = 3, word[1] = 400040, word[2] = 4, word[3] = 38, word[4] = 5, word[5] = 5, word[6] = 7, word[7] = 0, 
setDataFromBlock:: PC = 4765296,  addr = 4357000, sameCmdDataDir? 1, size = 8, data = word[0] = 3, 
setDataFromBlock:: PC = 4765082,  addr = 3102500, sameCmdDataDir? 1, size = 8, data = word[0] = 48b748, 
setDataFromBlock:: PC = 4765512,  addr = 4357010, sameCmdDataDir? 1, size = 8, data = word[0] = 400040, 
setDataFromBlock:: PC = 4765520,  addr = 4357020, sameCmdDataDir? 1, size = 8, data = word[0] = 4, 
setDataFromBlock:: PC = 4765082,  addr = 3102510, sameCmdDataDir? 1, size = 8, data = word[0] = 48b5b0, 
setDataFromBlock:: PC = 4765108,  addr = 4357040, sameCmdDataDir? 1, size = 8, data = word[0] = 5, 
setDataFromBlock:: PC = 4765082,  addr = 3102520, sameCmdDataDir? 1, size = 8, data = word[0] = 48b728, 
setDataFromBlock:: PC = 4765480,  addr = 4357050, sameCmdDataDir? 1, size = 8, data = word[0] = 5, 
setDataFromBlock:: PC = 4765488,  addr = 4357060, sameCmdDataDir? 1, size = 8, data = word[0] = 7, 
setDataFromBlock:: PC = 4765082,  addr = 3102540, sameCmdDataDir? 1, size = 8, data = word[0] = 48b5b0, 
system.mem_ctrls::access() Cmd: ReadSharedReq, DataDir: 1, CmdDir: 1, Size: 64, addr: 4357100, PC: 4765108, time: 134000
setDataFromBlock:: PC = 4765108,  addr = 4357100, sameCmdDataDir? 1, size = 64, data = word[0] = 8, word[1] = 0, word[2] = 9, word[3] = 4001c0, word[4] = b, word[5] = 64, word[6] = c, word[7] = 64, 
setDataFromBlock:: PC = 4765108,  addr = 4357100, sameCmdDataDir? 1, size = 8, data = word[0] = 8, 
setDataFromBlock:: PC = 4765082,  addr = 3102550, sameCmdDataDir? 1, size = 8, data = word[0] = 48b5b0, 
setDataFromBlock:: PC = 4765108,  addr = 4357120, sameCmdDataDir? 1, size = 8, data = word[0] = 9, 
setDataFromBlock:: PC = 4765082,  addr = 3102560, sameCmdDataDir? 1, size = 8, data = word[0] = 48b5b0, 
setDataFromBlock:: PC = 4765108,  addr = 4357140, sameCmdDataDir? 1, size = 8, data = word[0] = b, 
setDataFromBlock:: PC = 4765082,  addr = 3102600, sameCmdDataDir? 1, size = 8, data = word[0] = 48b708, 
setDataFromBlock:: PC = 4765448,  addr = 4357150, sameCmdDataDir? 1, size = 4, data = word[0] = 64, 
setDataFromBlock:: PC = 4765458,  addr = 4357160, sameCmdDataDir? 1, size = 8, data = word[0] = c, 
setDataFromBlock:: PC = 4765082,  addr = 3102610, sameCmdDataDir? 1, size = 8, data = word[0] = 48b6e8, 
setDataFromBlock:: PC = 4765416,  addr = 4357170, sameCmdDataDir? 1, size = 4, data = word[0] = 64, 
system.mem_ctrls::access() Cmd: ReadSharedReq, DataDir: 1, CmdDir: 1, Size: 64, addr: 4357200, PC: 4765426, time: 174500
setDataFromBlock:: PC = 4765426,  addr = 4357200, sameCmdDataDir? 1, size = 64, data = word[0] = d, word[1] = 64, word[2] = e, word[3] = 64, word[4] = 17, word[5] = 0, word[6] = 19, word[7] = 7fffffffeef9, 
setDataFromBlock:: PC = 4765426,  addr = 4357200, sameCmdDataDir? 1, size = 8, data = word[0] = d, 
setDataFromBlock:: PC = 4765082,  addr = 3102620, sameCmdDataDir? 1, size = 8, data = word[0] = 48b6c8, 
setDataFromBlock:: PC = 4765384,  addr = 4357210, sameCmdDataDir? 1, size = 4, data = word[0] = 64, 
setDataFromBlock:: PC = 4765394,  addr = 4357220, sameCmdDataDir? 1, size = 8, data = word[0] = e, 
setDataFromBlock:: PC = 4765082,  addr = 3102630, sameCmdDataDir? 1, size = 8, data = word[0] = 48b6a8, 
setDataFromBlock:: PC = 4765352,  addr = 4357230, sameCmdDataDir? 1, size = 4, data = word[0] = 64, 
setDataFromBlock:: PC = 4765362,  addr = 4357240, sameCmdDataDir? 1, size = 8, data = word[0] = 17, 
system.mem_ctrls::access() Cmd: ReadSharedReq, DataDir: 1, CmdDir: 1, Size: 64, addr: 3102700, PC: 4765082, time: 203000
setDataFromBlock:: PC = 4765082,  addr = 3102700, sameCmdDataDir? 1, size = 64, data = word[0] = 48b5b0, word[1] = 48b5b0, word[2] = 48b5b0, word[3] = 48b5b0, word[4] = 48b640, word[5] = 48b5b0, word[6] = 48b5b0, word[7] = 48b5b0, 
setDataFromBlock:: PC = 4765082,  addr = 3102740, sameCmdDataDir? 1, size = 8, data = word[0] = 48b640, 
setDataFromBlock:: PC = 4765248,  addr = 4357250, sameCmdDataDir? 1, size = 4, data = word[0] = 0, 
setDataFromBlock:: PC = 4765262,  addr = 4357260, sameCmdDataDir? 1, size = 8, data = word[0] = 19, 
setDataFromBlock:: PC = 4765082,  addr = 3102760, sameCmdDataDir? 1, size = 8, data = word[0] = 48b5b0, 
system.mem_ctrls::access() Cmd: ReadSharedReq, DataDir: 1, CmdDir: 1, Size: 64, addr: 4357300, PC: 4765108, time: 216000
setDataFromBlock:: PC = 4765108,  addr = 4357300, sameCmdDataDir? 1, size = 64, data = word[0] = 1f, word[1] = 7fffffffeda8, word[2] = f, word[3] = 7fffffffef09, word[4] = 0, word[5] = 0, word[6] = 0, word[7] = 34365f36387800, 
setDataFromBlock:: PC = 4765108,  addr = 4357300, sameCmdDataDir? 1, size = 8, data = word[0] = 1f, 
setDataFromBlock:: PC = 4765082,  addr = 3103040, sameCmdDataDir? 1, size = 8, data = word[0] = 48b5b0, 
setDataFromBlock:: PC = 4765108,  addr = 4357320, sameCmdDataDir? 1, size = 8, data = word[0] = f, 
setDataFromBlock:: PC = 4765082,  addr = 3102640, sameCmdDataDir? 1, size = 8, data = word[0] = 48b5b0, 
setDataFromBlock:: PC = 4765108,  addr = 4357340, sameCmdDataDir? 1, size = 8, data = word[0] = 0, 
writeDataToBlock:: PC = 4765123,  addr = 4345360, sameCmdDataDir? 1, size = 8, data = word[0] = 1000, 
writeDataToBlock:: PC = 4765130,  addr = 4345660, sameCmdDataDir? 1, size = 4, data = word[0] = 64, 
writeDataToBlock:: PC = 4765137,  addr = 4345350, sameCmdDataDir? 1, size = 8, data = word[0] = 400040, 
writeDataToBlock:: PC = 4765144,  addr = 4345570, sameCmdDataDir? 1, size = 8, data = word[0] = 5, 
writeDataToBlock:: PC = 4765151,  addr = 4343260, sameCmdDataDir? 1, size = 8, data = word[0] = 78bfbff, 
writeDataToBlock:: PC = 4765158,  addr = 4345650, sameCmdDataDir? 1, size = 8, data = word[0] = ffffffffff600000, 
writeDataToBlock:: PC = 4765165,  addr = 4040510, sameCmdDataDir? 1, size = 4, data = word[0] = 0, 
writeDataToBlock:: PC = 4765172,  addr = 4345760, sameCmdDataDir? 1, size = 4, data = word[0] = 1, 
setDataFromBlock:: PC = 4765212,  addr = 4355270, sameCmdDataDir? 1, size = 8, data = word[0] = 456ae0, 
setDataFromBlock:: PC = 4765213,  addr = 4355300, sameCmdDataDir? 1, size = 8, data = word[0] = 456aa0, 
setDataFromBlock:: PC = 4765214,  addr = 4355310, sameCmdDataDir? 1, size = 8, data = word[0] = 0, 
setDataFromBlock:: PC = 4765216,  addr = 4355320, sameCmdDataDir? 1, size = 8, data = word[0] = 0, 
setDataFromBlock:: PC = 4765218,  addr = 4355330, sameCmdDataDir? 1, size = 8, data = word[0] = 456151, 
setDataFromBlock:: PC = 4546897,  addr = 4052150, sameCmdDataDir? 1, size = 4, data = word[0] = 0, 
writeDataToBlock:: PC = 4546926,  addr = 4355330, sameCmdDataDir? 1, size = 8, data = word[0] = 456173, 
system.cpu.dcache.cpu_side::recvFunctional: addr = 4355400, size = 64, hasData? 1, MemCmd: WriteReq, word[0] = 78756e694c, word[1] = 0, word[2] = 0, word[3] = 0, word[4] = 0, word[5] = 0, word[6] = 0, word[7] = 0
system.l2.cpu_side::recvFunctional: addr = 4355400, size = 64, hasData? 1, MemCmd: WriteReq, word[0] = 78756e694c, word[1] = 0, word[2] = 0, word[3] = 0, word[4] = 0, word[5] = 0, word[6] = 0, word[7] = 0
system.cpu.dcache.cpu_side::recvFunctional: addr = 4355500, size = 64, hasData? 1, MemCmd: WriteReq, word[0] = 6d65672e6d697300, word[1] = 67726f2e35, word[2] = 0, word[3] = 0, word[4] = 0, word[5] = 0, word[6] = 0, word[7] = 0
system.l2.cpu_side::recvFunctional: addr = 4355500, size = 64, hasData? 1, MemCmd: WriteReq, word[0] = 6d65672e6d697300, word[1] = 67726f2e35, word[2] = 0, word[3] = 0, word[4] = 0, word[5] = 0, word[6] = 0, word[7] = 0
system.cpu.dcache.cpu_side::recvFunctional: addr = 4355600, size = 64, hasData? 1, MemCmd: WriteReq, word[0] = 302e302e330000, word[1] = 0, word[2] = 0, word[3] = 0, word[4] = 0, word[5] = 0, word[6] = 0, word[7] = 0
system.l2.cpu_side::recvFunctional: addr = 4355600, size = 64, hasData? 1, MemCmd: WriteReq, word[0] = 302e302e330000, word[1] = 0, word[2] = 0, word[3] = 0, word[4] = 0, word[5] = 0, word[6] = 0, word[7] = 0
system.cpu.dcache.cpu_side::recvFunctional: addr = 4355700, size = 64, hasData? 1, MemCmd: WriteReq, word[0] = 6f4d203123000000, word[1] = 383120677541206e, word[2] = 313a32333a313120, word[3] = 3032205444452035, word[4] = 3330, word[5] = 0, word[6] = 0, word[7] = 0
system.l2.cpu_side::recvFunctional: addr = 4355700, size = 64, hasData? 1, MemCmd: WriteReq, word[0] = 6f4d203123000000, word[1] = 383120677541206e, word[2] = 313a32333a313120, word[3] = 3032205444452035, word[4] = 3330, word[5] = 0, word[6] = 0, word[7] = 0
system.cpu.dcache.cpu_side::recvFunctional: addr = 4356000, size = 64, hasData? 1, MemCmd: WriteReq, word[0] = 5f36387800000000, word[1] = 3436, word[2] = 0, word[3] = 0, word[4] = 0, word[5] = 0, word[6] = 0, word[7] = 0
system.l2.cpu_side::recvFunctional: addr = 4356000, size = 64, hasData? 1, MemCmd: WriteReq, word[0] = 5f36387800000000, word[1] = 3436, word[2] = 0, word[3] = 0, word[4] = 0, word[5] = 0, word[6] = 0, word[7] = 0
system.cpu.dcache.cpu_side::recvFunctional: addr = 4356100, size = 5, hasData? 1, MemCmd: WriteReq
system.l2.cpu_side::recvFunctional: addr = 4356100, size = 5, hasData? 1, MemCmd: WriteReq
setDataFromBlock:: PC = 4749587,  addr = 4355330, sameCmdDataDir? 1, size = 8, data = word[0] = 456173, 
system.mem_ctrls::access() Cmd: ReadSharedReq, DataDir: 1, CmdDir: 1, Size: 64, addr: 4355600, PC: 4546939, time: 276000
setDataFromBlock:: PC = 4546939,  addr = 4355600, sameCmdDataDir? 1, size = 64, data = word[0] = 302e302e330000, word[1] = 0, word[2] = 0, word[3] = 0, word[4] = 0, word[5] = 0, word[6] = 0, word[7] = 0, 
setDataFromBlock:: PC = 4546939,  addr = 4355602, sameCmdDataDir? 1, size = 1, data = word[0] = 33, 
setDataFromBlock:: PC = 4546960,  addr = 4355603, sameCmdDataDir? 1, size = 1, data = word[0] = 2e, 
setDataFromBlock:: PC = 4547036,  addr = 4355604, sameCmdDataDir? 1, size = 1, data = word[0] = 30, 
setDataFromBlock:: PC = 4546960,  addr = 4355605, sameCmdDataDir? 1, size = 1, data = word[0] = 2e, 
setDataFromBlock:: PC = 4547036,  addr = 4355606, sameCmdDataDir? 1, size = 1, data = word[0] = 30, 
setDataFromBlock:: PC = 4546960,  addr = 4355607, sameCmdDataDir? 1, size = 1, data = word[0] = 0, 
setDataFromBlock:: PC = 4547081,  addr = 4345664, sameCmdDataDir? 1, size = 4, data = word[0] = 0, 
writeDataToBlock:: PC = 4547095,  addr = 4345664, sameCmdDataDir? 1, size = 4, data = word[0] = 30000, 
writeDataToBlock:: PC = 4547113,  addr = 4355330, sameCmdDataDir? 1, size = 8, data = word[0] = 45622e, 
writeDataToBlock:: PC = 4548640,  addr = 4355320, sameCmdDataDir? 1, size = 8, data = word[0] = 0, 
writeDataToBlock:: PC = 4548642,  addr = 4355310, sameCmdDataDir? 1, size = 8, data = word[0] = 7fffffffeb86, 
writeDataToBlock:: PC = 4548644,  addr = 4355300, sameCmdDataDir? 1, size = 8, data = word[0] = 7fffffffeb00, 
writeDataToBlock:: PC = 4548646,  addr = 4355270, sameCmdDataDir? 1, size = 8, data = word[0] = 0, 
writeDataToBlock:: PC = 4548648,  addr = 4355260, sameCmdDataDir? 1, size = 8, data = word[0] = 456aa0, 
writeDataToBlock:: PC = 4548649,  addr = 4355250, sameCmdDataDir? 1, size = 8, data = word[0] = 456ae0, 
setDataFromBlock:: PC = 4548654,  addr = 4345350, sameCmdDataDir? 1, size = 8, data = word[0] = 400040, 
setDataFromBlock:: PC = 4548666,  addr = 4345570, sameCmdDataDir? 1, size = 8, data = word[0] = 5, 
system.mem_ctrls::access() Cmd: ReadSharedReq, DataDir: 1, CmdDir: 1, Size: 64, addr: 100, PC: 4548713, time: 362000
setDataFromBlock:: PC = 4548713,  addr = 100, sameCmdDataDir? 1, size = 64, data = word[0] = 500000001, word[1] = 0, word[2] = 400000, word[3] = 400000, word[4] = fe54f, word[5] = fe54f, word[6] = 200000, word[7] = 600000001, 
setDataFromBlock:: PC = 4548713,  addr = 100, sameCmdDataDir? 1, size = 4, data = word[0] = 1, 
setDataFromBlock:: PC = 4548713,  addr = 170, sameCmdDataDir? 1, size = 4, data = word[0] = 1, 
system.mem_ctrls::access() Cmd: ReadSharedReq, DataDir: 1, CmdDir: 1, Size: 64, addr: 200, PC: 4548713, time: 375000
setDataFromBlock:: PC = 4548713,  addr = 200, sameCmdDataDir? 1, size = 64, data = word[0] = fe550, word[1] = 6fe550, word[2] = 6fe550, word[3] = 6278, word[4] = 1d7a0, word[5] = 200000, word[6] = 400000004, word[7] = 158, 
setDataFromBlock:: PC = 4548713,  addr = 260, sameCmdDataDir? 1, size = 4, data = word[0] = 4, 
system.mem_ctrls::access() Cmd: ReadSharedReq, DataDir: 1, CmdDir: 1, Size: 64, addr: 300, PC: 4548713, time: 381500
setDataFromBlock:: PC = 4548713,  addr = 300, sameCmdDataDir? 1, size = 64, data = word[0] = 400158, word[1] = 400158, word[2] = 44, word[3] = 44, word[4] = 4, word[5] = 400000007, word[6] = fe550, word[7] = 6fe550, 
setDataFromBlock:: PC = 4548713,  addr = 350, sameCmdDataDir? 1, size = 4, data = word[0] = 7, 
system.mem_ctrls::access() Cmd: ReadSharedReq, DataDir: 1, CmdDir: 1, Size: 64, addr: 400, PC: 4548718, time: 384500
setDataFromBlock:: PC = 4548718,  addr = 400, sameCmdDataDir? 1, size = 64, data = word[0] = 6fe550, word[1] = 20, word[2] = 60, word[3] = 8, word[4] = 66474e551, word[5] = 0, word[6] = 0, word[7] = 0, 
setDataFromBlock:: PC = 4548718,  addr = 430, sameCmdDataDir? 1, size = 8, data = word[0] = 8, 
setDataFromBlock:: PC = 4548722,  addr = 420, sameCmdDataDir? 1, size = 8, data = word[0] = 60, 
setDataFromBlock:: PC = 4548726,  addr = 410, sameCmdDataDir? 1, size = 8, data = word[0] = 20, 
setDataFromBlock:: PC = 4548730,  addr = 370, sameCmdDataDir? 1, size = 8, data = word[0] = 6fe550, 
writeDataToBlock:: PC = 4548747,  addr = 4355220, sameCmdDataDir? 1, size = 8, data = word[0] = fffffffffffffff0, 
writeDataToBlock:: PC = 4548756,  addr = 4355230, sameCmdDataDir? 1, size = 8, data = word[0] = f, 
system.mem_ctrls::access() Cmd: ReadSharedReq, DataDir: 1, CmdDir: 1, Size: 64, addr: 4045600, PC: 4548823, time: 397500
setDataFromBlock:: PC = 4548823,  addr = 4045600, sameCmdDataDir? 1, size = 64, data = word[0] = 4c0b61, word[1] = 4c0b65, word[2] = 4c0b69, word[3] = 4c0b6d, word[4] = 4c0b59, word[5] = 4c0b71, word[6] = ffffffffffffffff, word[7] = 800, 
setDataFromBlock:: PC = 4548823,  addr = 4045670, sameCmdDataDir? 1, size = 8, data = word[0] = 800, 
system.mem_ctrls::access() Cmd: ReadExReq, DataDir: 1, CmdDir: 1, Size: 64, addr: 4355100, PC: 4548843, time: 402000
setDataFromBlock:: PC = 4548843,  addr = 4355100, sameCmdDataDir? 1, size = 64, data = word[0] = 0, word[1] = 0, word[2] = 0, word[3] = 0, word[4] = 0, word[5] = 0, word[6] = 0, word[7] = 0, 
writeDataToBlock:: PC = 4548843,  addr = 4355170, sameCmdDataDir? 1, size = 8, data = word[0] = 4568f0, 
writeDataToBlock:: PC = 4752304,  addr = 4355150, sameCmdDataDir? 1, size = 8, data = word[0] = 8, 
writeDataToBlock:: PC = 4752309,  addr = 4355160, sameCmdDataDir? 1, size = 8, data = word[0] = 60, 
system.mem_ctrls::access() Cmd: ReadSharedReq, DataDir: 1, CmdDir: 1, Size: 64, addr: 4344100, PC: 4752318, time: 407000
setDataFromBlock:: PC = 4752318,  addr = 4344100, sameCmdDataDir? 1, size = 64, data = word[0] = 0, word[1] = 0, word[2] = 0, word[3] = 0, word[4] = 0, word[5] = 0, word[6] = 0, word[7] = 0, 
setDataFromBlock:: PC = 4752318,  addr = 4344120, sameCmdDataDir? 1, size = 8, data = word[0] = 0, 
writeDataToBlock:: PC = 4752370,  addr = 4355130, sameCmdDataDir? 1, size = 8, data = word[0] = 4883f7, 
writeDataToBlock:: PC = 4878167,  addr = 4344120, sameCmdDataDir? 1, size = 8, data = word[0] = 71c000, 
setDataFromBlock:: PC = 4878178,  addr = 4355130, sameCmdDataDir? 1, size = 8, data = word[0] = 4883f7, 
setDataFromBlock:: PC = 4752382,  addr = 4344120, sameCmdDataDir? 1, size = 8, data = word[0] = 71c000, 
writeDataToBlock:: PC = 4752395,  addr = 4355130, sameCmdDataDir? 1, size = 8, data = word[0] = 488410, 
writeDataToBlock:: PC = 4878167,  addr = 4344120, sameCmdDataDir? 1, size = 8, data = word[0] = 71cf30, 
setDataFromBlock:: PC = 4878178,  addr = 4355130, sameCmdDataDir? 1, size = 8, data = word[0] = 488410, 
setDataFromBlock:: PC = 4752351,  addr = 4355160, sameCmdDataDir? 1, size = 8, data = word[0] = 60, 
setDataFromBlock:: PC = 4752356,  addr = 4355150, sameCmdDataDir? 1, size = 8, data = word[0] = 8, 
setDataFromBlock:: PC = 4752365,  addr = 4355170, sameCmdDataDir? 1, size = 8, data = word[0] = 4568f0, 
setDataFromBlock:: PC = 4548848,  addr = 4355230, sameCmdDataDir? 1, size = 8, data = word[0] = f, 
system.mem_ctrls::access() Cmd: ReadExReq, DataDir: 1, CmdDir: 1, Size: 64, addr: 4317400, PC: 4548853, time: 451500
setDataFromBlock:: PC = 4548853,  addr = 4317400, sameCmdDataDir? 1, size = 64, data = word[0] = 0, word[1] = 0, word[2] = 0, word[3] = 0, word[4] = 0, word[5] = 0, word[6] = 0, word[7] = 0, 
writeDataToBlock:: PC = 4548853,  addr = 4317440, sameCmdDataDir? 1, size = 8, data = word[0] = 3e, 
setDataFromBlock:: PC = 4548868,  addr = 4355220, sameCmdDataDir? 1, size = 8, data = word[0] = fffffffffffffff0, 
system.mem_ctrls::access() Cmd: ReadExReq, DataDir: 1, CmdDir: 1, Size: 64, addr: 4317500, PC: 4548902, time: 467000
setDataFromBlock:: PC = 4548902,  addr = 4317500, sameCmdDataDir? 1, size = 64, data = word[0] = 0, word[1] = 0, word[2] = 0, word[3] = 0, word[4] = 0, word[5] = 0, word[6] = 0, word[7] = 0, 
writeDataToBlock:: PC = 4548902,  addr = 4317500, sameCmdDataDir? 1, size = 8, data = word[0] = 71c800, 
writeDataToBlock:: PC = 4548915,  addr = 4355210, sameCmdDataDir? 1, size = 8, data = word[0] = 71c000, 
system.mem_ctrls::access() Cmd: ReadExReq, DataDir: 1, CmdDir: 1, Size: 64, addr: 4325600, PC: 4548920, time: 469500
setDataFromBlock:: PC = 4548920,  addr = 4325600, sameCmdDataDir? 1, size = 64, data = word[0] = 0, word[1] = 0, word[2] = 0, word[3] = 0, word[4] = 0, word[5] = 0, word[6] = 0, word[7] = 0, 
writeDataToBlock:: PC = 4548920,  addr = 4325600, sameCmdDataDir? 1, size = 8, data = word[0] = 60, 
writeDataToBlock:: PC = 4548927,  addr = 4317510, sameCmdDataDir? 1, size = 1, data = word[0] = 1, 
writeDataToBlock:: PC = 4548934,  addr = 4355170, sameCmdDataDir? 1, size = 8, data = word[0] = 45694b, 
writeDataToBlock:: PC = 4707424,  addr = 4355160, sameCmdDataDir? 1, size = 8, data = word[0] = 71c800, 
system.mem_ctrls::access() Cmd: ReadSharedReq, DataDir: 1, CmdDir: 1, Size: 64, addr: 3772500, PC: 4707506, time: 488500
setDataFromBlock:: PC = 4707506,  addr = 3772500, sameCmdDataDir? 1, size = 64, data = word[0] = 0, word[1] = 0, word[2] = 703bc0, word[3] = 703bc0, word[4] = 703be0, word[5] = 703bc8, word[6] = ffffffffffffffff, word[7] = 4004b0, 
setDataFromBlock:: PC = 4707506,  addr = 3772520, sameCmdDataDir? 1, size = 8, data = word[0] = 703bc0, 
setDataFromBlock:: PC = 4707509,  addr = 3772530, sameCmdDataDir? 1, size = 8, data = word[0] = 703bc0, 
setDataFromBlock:: PC = 4707513,  addr = 3772540, sameCmdDataDir? 1, size = 8, data = word[0] = 703be0, 
setDataFromBlock:: PC = 4707517,  addr = 3772550, sameCmdDataDir? 1, size = 8, data = word[0] = 703bc8, 
system.mem_ctrls::access() Cmd: ReadExReq, DataDir: 1, CmdDir: 1, Size: 64, addr: 4374000, PC: 4707521, time: 491500
setDataFromBlock:: PC = 4707521,  addr = 4374000, sameCmdDataDir? 1, size = 64, data = word[0] = 0, word[1] = 0, word[2] = 0, word[3] = 0, word[4] = 0, word[5] = 0, word[6] = 0, word[7] = 0, 
writeDataToBlock:: PC = 4707521,  addr = 4374000, sameCmdDataDir? 1, size = 8, data = word[0] = 703bc0, 
writeDataToBlock:: PC = 4707524,  addr = 4374010, sameCmdDataDir? 1, size = 8, data = word[0] = 703bc0, 
writeDataToBlock:: PC = 4707528,  addr = 4374020, sameCmdDataDir? 1, size = 8, data = word[0] = 703be0, 
writeDataToBlock:: PC = 4707532,  addr = 4374030, sameCmdDataDir? 1, size = 8, data = word[0] = 703bc8, 
setDataFromBlock:: PC = 4707603,  addr = 4355160, sameCmdDataDir? 1, size = 8, data = word[0] = 71c800, 
setDataFromBlock:: PC = 4707614,  addr = 4355170, sameCmdDataDir? 1, size = 8, data = word[0] = 45694b, 
setDataFromBlock:: PC = 4548939,  addr = 4355210, sameCmdDataDir? 1, size = 8, data = word[0] = 71c000, 
system.mem_ctrls::access() Cmd: ReadExReq, DataDir: 1, CmdDir: 1, Size: 64, addr: 4374100, PC: 4548958, time: 504000
setDataFromBlock:: PC = 4548958,  addr = 4374100, sameCmdDataDir? 1, size = 64, data = word[0] = 0, word[1] = 0, word[2] = 0, word[3] = 0, word[4] = 0, word[5] = 0, word[6] = 0, word[7] = 0, 
writeDataToBlock:: PC = 4548958,  addr = 4374150, sameCmdDataDir? 1, size = 8, data = word[0] = 718f30, 
writeDataToBlock:: PC = 4548967,  addr = 4374140, sameCmdDataDir? 1, size = 8, data = word[0] = 71c860, 
writeDataToBlock:: PC = 4548970,  addr = 4374160, sameCmdDataDir? 1, size = 8, data = word[0] = 71c860, 
system.mem_ctrls::access() Cmd: ReadSharedReq, DataDir: 1, CmdDir: 1, Size: 64, addr: 4325100, PC: 4549024, time: 509000
setDataFromBlock:: PC = 4549024,  addr = 4325100, sameCmdDataDir? 1, size = 64, data = word[0] = 0, word[1] = 0, word[2] = 0, word[3] = 0, word[4] = 0, word[5] = 0, word[6] = 0, word[7] = 0, 
setDataFromBlock:: PC = 4549024,  addr = 4325114, sameCmdDataDir? 1, size = 1, data = word[0] = 0, 
writeDataToBlock:: PC = 4549024,  addr = 4325114, sameCmdDataDir? 1, size = 1, data = word[0] = 0, 
system.mem_ctrls::access() Cmd: ReadExReq, DataDir: 1, CmdDir: 1, Size: 64, addr: 4325500, PC: 4549034, time: 513000
setDataFromBlock:: PC = 4549034,  addr = 4325500, sameCmdDataDir? 1, size = 64, data = word[0] = 0, word[1] = 0, word[2] = 0, word[3] = 0, word[4] = 0, word[5] = 0, word[6] = 0, word[7] = 0, 
writeDataToBlock:: PC = 4549034,  addr = 4325560, sameCmdDataDir? 1, size = 8, data = word[0] = 8, 
writeDataToBlock:: PC = 4549041,  addr = 4325550, sameCmdDataDir? 1, size = 8, data = word[0] = 60, 
writeDataToBlock:: PC = 4549048,  addr = 4325530, sameCmdDataDir? 1, size = 8, data = word[0] = 6fe550, 
writeDataToBlock:: PC = 4549055,  addr = 4325540, sameCmdDataDir? 1, size = 8, data = word[0] = 20, 
writeDataToBlock:: PC = 4549062,  addr = 4325610, sameCmdDataDir? 1, size = 8, data = word[0] = 1, 
system.mem_ctrls::access() Cmd: ReadExReq, DataDir: 1, CmdDir: 1, Size: 64, addr: 4321400, PC: 4549073, time: 521000
setDataFromBlock:: PC = 4549073,  addr = 4321400, sameCmdDataDir? 1, size = 64, data = word[0] = 0, word[1] = 0, word[2] = 0, word[3] = 0, word[4] = 0, word[5] = 0, word[6] = 0, word[7] = 0, 
writeDataToBlock:: PC = 4549073,  addr = 4321440, sameCmdDataDir? 1, size = 8, data = word[0] = 40, 
system.mem_ctrls::access() Cmd: ReadExReq, DataDir: 1, CmdDir: 1, Size: 64, addr: 4345000, PC: 4549084, time: 523000
setDataFromBlock:: PC = 4549084,  addr = 4345000, sameCmdDataDir? 1, size = 64, data = word[0] = 0, word[1] = 0, word[2] = 0, word[3] = 0, word[4] = 0, word[5] = 0, word[6] = 0, word[7] = 0, 
writeDataToBlock:: PC = 4549084,  addr = 4345000, sameCmdDataDir? 1, size = 8, data = word[0] = 1, 
writeDataToBlock:: PC = 4549095,  addr = 4345040, sameCmdDataDir? 1, size = 8, data = word[0] = 719320, 
system.mem_ctrls::access() Cmd: ReadExReq, DataDir: 1, CmdDir: 1, Size: 64, addr: 4321500, PC: 4549106, time: 527500
setDataFromBlock:: PC = 4549106,  addr = 4321500, sameCmdDataDir? 1, size = 64, data = word[0] = 0, word[1] = 0, word[2] = 0, word[3] = 0, word[4] = 0, word[5] = 0, word[6] = 0, word[7] = 0, 
writeDataToBlock:: PC = 4549106,  addr = 4321510, sameCmdDataDir? 1, size = 8, data = word[0] = 719740, 
setDataFromBlock:: PC = 4549136,  addr = 4045670, sameCmdDataDir? 1, size = 8, data = word[0] = 800, 
writeDataToBlock:: PC = 4549143,  addr = 4345010, sameCmdDataDir? 1, size = 8, data = word[0] = 1, 
writeDataToBlock:: PC = 4549166,  addr = 4345030, sameCmdDataDir? 1, size = 8, data = word[0] = 720, 
writeDataToBlock:: PC = 4549181,  addr = 4045670, sameCmdDataDir? 1, size = 8, data = word[0] = f20, 
writeDataToBlock:: PC = 4549197,  addr = 4345020, sameCmdDataDir? 1, size = 8, data = word[0] = 10, 
setDataFromBlock:: PC = 4549208,  addr = 4355250, sameCmdDataDir? 1, size = 8, data = word[0] = 456ae0, 
setDataFromBlock:: PC = 4549209,  addr = 4355260, sameCmdDataDir? 1, size = 8, data = word[0] = 456aa0, 
setDataFromBlock:: PC = 4549210,  addr = 4355270, sameCmdDataDir? 1, size = 8, data = word[0] = 0, 
setDataFromBlock:: PC = 4549212,  addr = 4355300, sameCmdDataDir? 1, size = 8, data = word[0] = 7fffffffeb00, 
setDataFromBlock:: PC = 4549214,  addr = 4355310, sameCmdDataDir? 1, size = 8, data = word[0] = 7fffffffeb86, 
setDataFromBlock:: PC = 4549216,  addr = 4355320, sameCmdDataDir? 1, size = 8, data = word[0] = 0, 
setDataFromBlock:: PC = 4549218,  addr = 4355330, sameCmdDataDir? 1, size = 8, data = word[0] = 45622e, 
writeDataToBlock:: PC = 4547118,  addr = 4356510, sameCmdDataDir? 1, size = 8, data = word[0] = 0, 
writeDataToBlock:: PC = 4547138,  addr = 4356517, sameCmdDataDir? 1, size = 1, data = word[0] = ff, 
writeDataToBlock:: PC = 4547146,  addr = 4356516, sameCmdDataDir? 1, size = 1, data = word[0] = a, 
setDataFromBlock:: PC = 4547163,  addr = 4374140, sameCmdDataDir? 1, size = 8, data = word[0] = 71c860, 
setDataFromBlock:: PC = 4547202,  addr = 4356510, sameCmdDataDir? 1, size = 8, data = word[0] = ff0a000000000000, 
writeDataToBlock:: PC = 4547213,  addr = 4356510, sameCmdDataDir? 1, size = 8, data = word[0] = 35ec00000047500, 
system.mem_ctrls::access() Cmd: ReadExReq, DataDir: 1, CmdDir: 1, Size: 64, addr: 4374200, PC: 4547221, time: 585000
setDataFromBlock:: PC = 4547221,  addr = 4374200, sameCmdDataDir? 1, size = 64, data = word[0] = 0, word[1] = 0, word[2] = 0, word[3] = 0, word[4] = 0, word[5] = 0, word[6] = 0, word[7] = 0, 
writeDataToBlock:: PC = 4547221,  addr = 4374210, sameCmdDataDir? 1, size = 8, data = word[0] = 35ec00000047500, 
setDataFromBlock:: PC = 4547247,  addr = 4336310, sameCmdDataDir? 1, size = 8, data = word[0] = 7fffffffedb8, 
setDataFromBlock:: PC = 4547254,  addr = 4355360, sameCmdDataDir? 1, size = 8, data = word[0] = 7fffffffeda8, 
setDataFromBlock:: PC = 4547259,  addr = 4355354, sameCmdDataDir? 1, size = 4, data = word[0] = 1, 
writeDataToBlock:: PC = 4547263,  addr = 4355330, sameCmdDataDir? 1, size = 8, data = word[0] = 4562c4, 
writeDataToBlock:: PC = 4768021,  addr = 4355300, sameCmdDataDir? 1, size = 8, data = word[0] = 456ae0, 
writeDataToBlock:: PC = 4768026,  addr = 4355310, sameCmdDataDir? 1, size = 8, data = word[0] = 456aa0, 
writeDataToBlock:: PC = 4768031,  addr = 4355320, sameCmdDataDir? 1, size = 8, data = word[0] = 0, 
system.mem_ctrls::access() Cmd: ReadSharedReq, DataDir: 1, CmdDir: 1, Size: 64, addr: 4053400, PC: 4768063, time: 602500
setDataFromBlock:: PC = 4768063,  addr = 4053400, sameCmdDataDir? 1, size = 64, data = word[0] = 4c891a, word[1] = 0, word[2] = 0, word[3] = 0, word[4] = 37f, word[5] = 0, word[6] = 4c0b44, word[7] = 4c0b44, 
setDataFromBlock:: PC = 4768063,  addr = 4053440, sameCmdDataDir? 1, size = 2, data = word[0] = 37f, 
writeDataToBlock:: PC = 4768070,  addr = 4052150, sameCmdDataDir? 1, size = 4, data = word[0] = 0, 
writeDataToBlock:: PC = 4768080,  addr = 4355270, sameCmdDataDir? 1, size = 8, data = word[0] = 48c155, 
writeDataToBlock:: PC = 4804928,  addr = 4355266, sameCmdDataDir? 1, size = 2, data = word[0] = 0, 
setDataFromBlock:: PC = 4804932,  addr = 4355266, sameCmdDataDir? 1, size = 2, data = word[0] = 0, 
writeDataToBlock:: PC = 4804948,  addr = 4355266, sameCmdDataDir? 1, size = 2, data = word[0] = 33f, 
setDataFromBlock:: PC = 4804953,  addr = 4355266, sameCmdDataDir? 1, size = 2, data = word[0] = 33f, 
setDataFromBlock:: PC = 4804957,  addr = 4355270, sameCmdDataDir? 1, size = 8, data = word[0] = 48c155, 
writeDataToBlock:: PC = 4768085,  addr = 4345770, sameCmdDataDir? 1, size = 4, data = word[0] = 1, 
system.mem_ctrls::access() Cmd: ReadExReq, DataDir: 1, CmdDir: 1, Size: 64, addr: 4346000, PC: 4768091, time: 619500
setDataFromBlock:: PC = 4768091,  addr = 4346000, sameCmdDataDir? 1, size = 64, data = word[0] = 0, word[1] = 0, word[2] = 0, word[3] = 0, word[4] = 0, word[5] = 0, word[6] = 0, word[7] = 0, 
writeDataToBlock:: PC = 4768091,  addr = 4346000, sameCmdDataDir? 1, size = 8, data = word[0] = 7fffffffeda8, 
writeDataToBlock:: PC = 4768098,  addr = 4336310, sameCmdDataDir? 1, size = 8, data = word[0] = 7fffffffedb8, 
writeDataToBlock:: PC = 4768105,  addr = 4355270, sameCmdDataDir? 1, size = 8, data = word[0] = 48c16e, 
setDataFromBlock:: PC = 4767856,  addr = 4345760, sameCmdDataDir? 1, size = 4, data = word[0] = 1, 
writeDataToBlock:: PC = 4767862,  addr = 4355260, sameCmdDataDir? 1, size = 8, data = word[0] = 1, 
setDataFromBlock:: PC = 4767867,  addr = 4355260, sameCmdDataDir? 1, size = 8, data = word[0] = 1, 
setDataFromBlock:: PC = 4767868,  addr = 4355270, sameCmdDataDir? 1, size = 8, data = word[0] = 48c16e, 
writeDataToBlock:: PC = 4768110,  addr = 4355270, sameCmdDataDir? 1, size = 8, data = word[0] = 48c173, 
writeDataToBlock:: PC = 4765600,  addr = 4355260, sameCmdDataDir? 1, size = 8, data = word[0] = 7fffffffeb00, 
writeDataToBlock:: PC = 4765602,  addr = 4355250, sameCmdDataDir? 1, size = 8, data = word[0] = 7fffffffedb8, 
writeDataToBlock:: PC = 4765604,  addr = 4355240, sameCmdDataDir? 1, size = 8, data = word[0] = 7fffffffeda8, 
writeDataToBlock:: PC = 4765605,  addr = 4355230, sameCmdDataDir? 1, size = 8, data = word[0] = 1, 
setDataFromBlock:: PC = 4765621,  addr = 4345360, sameCmdDataDir? 1, size = 8, data = word[0] = 1000, 
writeDataToBlock:: PC = 4765629,  addr = 4345340, sameCmdDataDir? 1, size = 8, data = word[0] = 500, 
writeDataToBlock:: PC = 4765662,  addr = 4355170, sameCmdDataDir? 1, size = 8, data = word[0] = 48b7e3, 
writeDataToBlock:: PC = 4583648,  addr = 4355110, sameCmdDataDir? 1, size = 8, data = word[0] = 4d4f4a, 
writeDataToBlock:: PC = 4583653,  addr = 4355130, sameCmdDataDir? 1, size = 8, data = word[0] = 7fffffffedb8, 
writeDataToBlock:: PC = 4583658,  addr = 4355160, sameCmdDataDir? 1, size = 8, data = word[0] = 0, 
writeDataToBlock:: PC = 4583663,  addr = 4355120, sameCmdDataDir? 1, size = 8, data = word[0] = 7fffffffeda8, 
writeDataToBlock:: PC = 4583671,  addr = 4355140, sameCmdDataDir? 1, size = 8, data = word[0] = 7fffffffeb00, 
writeDataToBlock:: PC = 4583676,  addr = 4355150, sameCmdDataDir? 1, size = 8, data = word[0] = 7fffffffeb86, 
system.mem_ctrls::access() Cmd: ReadExReq, DataDir: 1, CmdDir: 1, Size: 64, addr: 4355000, PC: 4583685, time: 661500
setDataFromBlock:: PC = 4583685,  addr = 4355000, sameCmdDataDir? 1, size = 64, data = word[0] = 0, word[1] = 0, word[2] = 0, word[3] = 0, word[4] = 0, word[5] = 0, word[6] = 0, word[7] = 0, 
writeDataToBlock:: PC = 4583685,  addr = 4355070, sameCmdDataDir? 1, size = 8, data = word[0] = 45f10a, 
system.mem_ctrls::access() Cmd: ReadSharedReq, DataDir: 1, CmdDir: 1, Size: 64, addr: 3103500, PC: 4699984, time: 669000
setDataFromBlock:: PC = 4699984,  addr = 3103500, sameCmdDataDir? 1, size = 64, data = word[0] = 4f435f54534f485f, word[1] = 4f5f53455200464e, word[2] = 5400534e4f495450, word[3] = 5a5400524944504d, word[4] = 5f444c0000524944, word[5] = 5f444c004e524157, word[6] = 5f5952415242494c, word[7] = 5f444c0048544150, 
setDataFromBlock:: PC = 4699984,  addr = 3103545, sameCmdDataDir? 1, size = 1, data = word[0] = 4c, 
setDataFromBlock:: PC = 4699984,  addr = 3103546, sameCmdDataDir? 1, size = 1, data = word[0] = 44, 
setDataFromBlock:: PC = 4699984,  addr = 3103547, sameCmdDataDir? 1, size = 1, data = word[0] = 5f, 
setDataFromBlock:: PC = 4700016,  addr = 3103550, sameCmdDataDir? 1, size = 8, data = word[0] = 5f444c004e524157, 
setDataFromBlock:: PC = 4700200,  addr = 4355070, sameCmdDataDir? 1, size = 8, data = word[0] = 45f10a, 
setDataFromBlock:: PC = 4583690,  addr = 4336310, sameCmdDataDir? 1, size = 8, data = word[0] = 7fffffffedb8, 
setDataFromBlock:: PC = 4583744,  addr = 3103545, sameCmdDataDir? 1, size = 1, data = word[0] = 4c, 
setDataFromBlock:: PC = 4583750,  addr = 3103546, sameCmdDataDir? 1, size = 1, data = word[0] = 44, 
setDataFromBlock:: PC = 4583757,  addr = 4356670, sameCmdDataDir? 1, size = 8, data = word[0] = 0, 
setDataFromBlock:: PC = 4583760,  addr = 3103545, sameCmdDataDir? 1, size = 2, data = word[0] = 444c, 
setDataFromBlock:: PC = 4583707,  addr = 4355110, sameCmdDataDir? 1, size = 8, data = word[0] = 4d4f4a, 
setDataFromBlock:: PC = 4583712,  addr = 4355120, sameCmdDataDir? 1, size = 8, data = word[0] = 7fffffffeda8, 
setDataFromBlock:: PC = 4583717,  addr = 4355130, sameCmdDataDir? 1, size = 8, data = word[0] = 7fffffffedb8, 
setDataFromBlock:: PC = 4583722,  addr = 4355140, sameCmdDataDir? 1, size = 8, data = word[0] = 7fffffffeb00, 
setDataFromBlock:: PC = 4583727,  addr = 4355150, sameCmdDataDir? 1, size = 8, data = word[0] = 7fffffffeb86, 
setDataFromBlock:: PC = 4583732,  addr = 4355160, sameCmdDataDir? 1, size = 8, data = word[0] = 0, 
setDataFromBlock:: PC = 4583741,  addr = 4355170, sameCmdDataDir? 1, size = 8, data = word[0] = 48b7e3, 
system.mem_ctrls::access() Cmd: ReadSharedReq, DataDir: 1, CmdDir: 1, Size: 64, addr: 3247500, PC: 4765679, time: 741000
setDataFromBlock:: PC = 4765679,  addr = 3247500, sameCmdDataDir? 1, size = 64, data = word[0] = 400070059252053, word[1] = 6225206125000100, word[2] = 253a482520652520, word[3] = 205a252053253a4d, word[4] = 5925, word[5] = 6100000025, word[6] = 2500000020, word[7] = 2000000062, 
setDataFromBlock:: PC = 4765679,  addr = 3247512, sameCmdDataDir? 1, size = 1, data = word[0] = 0, 
system.mem_ctrls::access() Cmd: ReadExReq, DataDir: 1, CmdDir: 1, Size: 64, addr: 4345400, PC: 4765688, time: 744500
setDataFromBlock:: PC = 4765688,  addr = 4345400, sameCmdDataDir? 1, size = 64, data = word[0] = 0, word[1] = 0, word[2] = 0, word[3] = 0, word[4] = 0, word[5] = 0, word[6] = 0, word[7] = 0, 
writeDataToBlock:: PC = 4765688,  addr = 4345434, sameCmdDataDir? 1, size = 4, data = word[0] = 0, 
writeDataToBlock:: PC = 4765694,  addr = 4355170, sameCmdDataDir? 1, size = 8, data = word[0] = 48b803, 
writeDataToBlock:: PC = 4583648,  addr = 4355110, sameCmdDataDir? 1, size = 8, data = word[0] = 4d4f4a, 
writeDataToBlock:: PC = 4583653,  addr = 4355130, sameCmdDataDir? 1, size = 8, data = word[0] = 7fffffffedb8, 
writeDataToBlock:: PC = 4583658,  addr = 4355160, sameCmdDataDir? 1, size = 8, data = word[0] = 0, 
writeDataToBlock:: PC = 4583663,  addr = 4355120, sameCmdDataDir? 1, size = 8, data = word[0] = 7fffffffeda8, 
writeDataToBlock:: PC = 4583671,  addr = 4355140, sameCmdDataDir? 1, size = 8, data = word[0] = 7fffffffeb00, 
writeDataToBlock:: PC = 4583676,  addr = 4355150, sameCmdDataDir? 1, size = 8, data = word[0] = 7fffffffeb86, 
writeDataToBlock:: PC = 4583685,  addr = 4355070, sameCmdDataDir? 1, size = 8, data = word[0] = 45f10a, 
setDataFromBlock:: PC = 4699984,  addr = 3103555, sameCmdDataDir? 1, size = 1, data = word[0] = 4c, 
setDataFromBlock:: PC = 4699984,  addr = 3103556, sameCmdDataDir? 1, size = 1, data = word[0] = 44, 
setDataFromBlock:: PC = 4699984,  addr = 3103557, sameCmdDataDir? 1, size = 1, data = word[0] = 5f, 
setDataFromBlock:: PC = 4700016,  addr = 3103560, sameCmdDataDir? 1, size = 8, data = word[0] = 5f5952415242494c, 
setDataFromBlock:: PC = 4700042,  addr = 3103570, sameCmdDataDir? 1, size = 8, data = word[0] = 5f444c0048544150, 
setDataFromBlock:: PC = 4700200,  addr = 4355070, sameCmdDataDir? 1, size = 8, data = word[0] = 45f10a, 
setDataFromBlock:: PC = 4583690,  addr = 4336310, sameCmdDataDir? 1, size = 8, data = word[0] = 7fffffffedb8, 
setDataFromBlock:: PC = 4583744,  addr = 3103555, sameCmdDataDir? 1, size = 1, data = word[0] = 4c, 
setDataFromBlock:: PC = 4583750,  addr = 3103556, sameCmdDataDir? 1, size = 1, data = word[0] = 44, 
setDataFromBlock:: PC = 4583757,  addr = 4356670, sameCmdDataDir? 1, size = 8, data = word[0] = 0, 
setDataFromBlock:: PC = 4583760,  addr = 3103555, sameCmdDataDir? 1, size = 2, data = word[0] = 444c, 
setDataFromBlock:: PC = 4583707,  addr = 4355110, sameCmdDataDir? 1, size = 8, data = word[0] = 4d4f4a, 
setDataFromBlock:: PC = 4583712,  addr = 4355120, sameCmdDataDir? 1, size = 8, data = word[0] = 7fffffffeda8, 
setDataFromBlock:: PC = 4583717,  addr = 4355130, sameCmdDataDir? 1, size = 8, data = word[0] = 7fffffffedb8, 
setDataFromBlock:: PC = 4583722,  addr = 4355140, sameCmdDataDir? 1, size = 8, data = word[0] = 7fffffffeb00, 
setDataFromBlock:: PC = 4583727,  addr = 4355150, sameCmdDataDir? 1, size = 8, data = word[0] = 7fffffffeb86, 
setDataFromBlock:: PC = 4583732,  addr = 4355160, sameCmdDataDir? 1, size = 8, data = word[0] = 0, 
setDataFromBlock:: PC = 4583741,  addr = 4355170, sameCmdDataDir? 1, size = 8, data = word[0] = 48b803, 
writeDataToBlock:: PC = 4765702,  addr = 4355170, sameCmdDataDir? 1, size = 8, data = word[0] = 48b80b, 
writeDataToBlock:: PC = 4883072,  addr = 4355160, sameCmdDataDir? 1, size = 8, data = word[0] = 7fffffffeda8, 
writeDataToBlock:: PC = 4883086,  addr = 4355150, sameCmdDataDir? 1, size = 8, data = word[0] = 0, 
writeDataToBlock:: PC = 4883088,  addr = 4355140, sameCmdDataDir? 1, size = 8, data = word[0] = 7fffffffeb86, 
writeDataToBlock:: PC = 4883090,  addr = 4355130, sameCmdDataDir? 1, size = 8, data = word[0] = 7fffffffeb00, 
writeDataToBlock:: PC = 4883092,  addr = 4355120, sameCmdDataDir? 1, size = 8, data = word[0] = 7fffffffedb8, 
writeDataToBlock:: PC = 4883094,  addr = 4355110, sameCmdDataDir? 1, size = 8, data = word[0] = 4d4f4a, 
setDataFromBlock:: PC = 4883102,  addr = 4345640, sameCmdDataDir? 1, size = 8, data = word[0] = 0, 
setDataFromBlock:: PC = 4883109,  addr = 4345560, sameCmdDataDir? 1, size = 8, data = word[0] = 0, 
writeDataToBlock:: PC = 4883116,  addr = 4355050, sameCmdDataDir? 1, size = 8, data = word[0] = 4a82b1, 
system.mem_ctrls::access() Cmd: ReadExReq, DataDir: 1, CmdDir: 1, Size: 64, addr: 4343300, PC: 4765552, time: 861500
setDataFromBlock:: PC = 4765552,  addr = 4343300, sameCmdDataDir? 1, size = 64, data = word[0] = 0, word[1] = 0, word[2] = 0, word[3] = 0, word[4] = 0, word[5] = 0, word[6] = 0, word[7] = 0, 
writeDataToBlock:: PC = 4765552,  addr = 4343310, sameCmdDataDir? 1, size = 8, data = word[0] = 0, 
writeDataToBlock:: PC = 4765563,  addr = 4343300, sameCmdDataDir? 1, size = 8, data = word[0] = 71b6b8, 
writeDataToBlock:: PC = 4765579,  addr = 4040570, sameCmdDataDir? 1, size = 8, data = word[0] = 1, 
setDataFromBlock:: PC = 4765586,  addr = 4355050, sameCmdDataDir? 1, size = 8, data = word[0] = 4a82b1, 
writeDataToBlock:: PC = 4883126,  addr = 4040560, sameCmdDataDir? 1, size = 8, data = word[0] = 71b6c0, 
writeDataToBlock:: PC = 4883133,  addr = 4355050, sameCmdDataDir? 1, size = 8, data = word[0] = 4a82c2, 
writeDataToBlock:: PC = 4683136,  addr = 4355040, sameCmdDataDir? 1, size = 8, data = word[0] = 7fffffffedb8, 
writeDataToBlock:: PC = 4683141,  addr = 4355020, sameCmdDataDir? 1, size = 8, data = word[0] = 0, 
writeDataToBlock:: PC = 4683149,  addr = 4355030, sameCmdDataDir? 1, size = 8, data = word[0] = 7fffffffea70, 
system.mem_ctrls::access() Cmd: ReadSharedReq, DataDir: 1, CmdDir: 1, Size: 64, addr: 4051600, PC: 4683158, time: 878000
setDataFromBlock:: PC = 4683158,  addr = 4051600, sameCmdDataDir? 1, size = 64, data = word[0] = 4c5200, word[1] = 703cc0, word[2] = 703da0, word[3] = 703e80, word[4] = 47b1b0, word[5] = 47a000, word[6] = 47a060, word[7] = 47a020, 
setDataFromBlock:: PC = 4683158,  addr = 4051650, sameCmdDataDir? 1, size = 8, data = word[0] = 47a000, 
setDataFromBlock:: PC = 4683637,  addr = 4355050, sameCmdDataDir? 1, size = 8, data = word[0] = 4a82c2, 
setDataFromBlock:: PC = 4683642,  addr = 4355020, sameCmdDataDir? 1, size = 8, data = word[0] = 0, 
setDataFromBlock:: PC = 4683646,  addr = 4355030, sameCmdDataDir? 1, size = 8, data = word[0] = 7fffffffea70, 
setDataFromBlock:: PC = 4683651,  addr = 4355040, sameCmdDataDir? 1, size = 8, data = word[0] = 7fffffffedb8, 
writeDataToBlock:: PC = 4694016,  addr = 4355040, sameCmdDataDir? 1, size = 8, data = word[0] = 0, 
writeDataToBlock:: PC = 4694020,  addr = 4051650, sameCmdDataDir? 1, size = 8, data = word[0] = 0, 
writeDataToBlock:: PC = 4694031,  addr = 4355030, sameCmdDataDir? 1, size = 8, data = word[0] = 47a014, 
writeDataToBlock:: PC = 4690352,  addr = 4355020, sameCmdDataDir? 1, size = 8, data = word[0] = 7fffffffeb00, 
writeDataToBlock:: PC = 4690354,  addr = 4355010, sameCmdDataDir? 1, size = 8, data = word[0] = 7fffffffedb8, 
writeDataToBlock:: PC = 4690356,  addr = 4355000, sameCmdDataDir? 1, size = 8, data = word[0] = 7fffffffea70, 
system.mem_ctrls::access() Cmd: ReadExReq, DataDir: 1, CmdDir: 1, Size: 64, addr: 4354700, PC: 4690357, time: 894500
setDataFromBlock:: PC = 4690357,  addr = 4354700, sameCmdDataDir? 1, size = 64, data = word[0] = 0, word[1] = 0, word[2] = 0, word[3] = 0, word[4] = 0, word[5] = 0, word[6] = 0, word[7] = 0, 
writeDataToBlock:: PC = 4690357,  addr = 4354770, sameCmdDataDir? 1, size = 8, data = word[0] = 18, 
system.mem_ctrls::access() Cmd: ReadSharedReq, DataDir: 1, CmdDir: 1, Size: 64, addr: 4051700, PC: 4690362, time: 898000
setDataFromBlock:: PC = 4690362,  addr = 4051700, sameCmdDataDir? 1, size = 64, data = word[0] = 3ffffffff, word[1] = 4000, word[2] = 80000, word[3] = 100000, word[4] = 2000000ff, word[5] = 8ffffffff, word[6] = 4d4f4a, word[7] = 4d4f4a, 
setDataFromBlock:: PC = 4690362,  addr = 4051700, sameCmdDataDir? 1, size = 4, data = word[0] = ffffffff, 
writeDataToBlock:: PC = 4690392,  addr = 4051700, sameCmdDataDir? 1, size = 4, data = word[0] = 0, 
system.mem_ctrls::access() Cmd: ReadExReq, DataDir: 1, CmdDir: 1, Size: 64, addr: 4335700, PC: 4690402, time: 904000
setDataFromBlock:: PC = 4690402,  addr = 4335700, sameCmdDataDir? 1, size = 64, data = word[0] = 0, word[1] = 0, word[2] = 0, word[3] = 0, word[4] = 0, word[5] = 0, word[6] = 0, word[7] = 0, 
writeDataToBlock:: PC = 4690402,  addr = 4335750, sameCmdDataDir? 1, size = 8, data = word[0] = 20000, 
system.mem_ctrls::access() Cmd: ReadExReq, DataDir: 1, CmdDir: 1, Size: 64, addr: 4336000, PC: 4690413, time: 906000
setDataFromBlock:: PC = 4690413,  addr = 4336000, sameCmdDataDir? 1, size = 64, data = word[0] = 0, word[1] = 0, word[2] = 0, word[3] = 0, word[4] = 0, word[5] = 0, word[6] = 0, word[7] = 0, 
writeDataToBlock:: PC = 4690413,  addr = 4336014, sameCmdDataDir? 1, size = 4, data = word[0] = 10000, 
writeDataToBlock:: PC = 4690423,  addr = 4335760, sameCmdDataDir? 1, size = 8, data = word[0] = 20000, 
writeDataToBlock:: PC = 4690434,  addr = 4335740, sameCmdDataDir? 1, size = 8, data = word[0] = 20000, 
writeDataToBlock:: PC = 4690445,  addr = 4354750, sameCmdDataDir? 1, size = 8, data = word[0] = 479212, 
setDataFromBlock:: PC = 4753136,  addr = 4345360, sameCmdDataDir? 1, size = 8, data = word[0] = 1000, 
setDataFromBlock:: PC = 4753154,  addr = 4354750, sameCmdDataDir? 1, size = 8, data = word[0] = 479212, 
writeDataToBlock:: PC = 4690450,  addr = 4336030, sameCmdDataDir? 1, size = 4, data = word[0] = 1000, 
writeDataToBlock:: PC = 4690463,  addr = 4335770, sameCmdDataDir? 1, size = 8, data = word[0] = 8, 
system.mem_ctrls::access() Cmd: ReadExReq, DataDir: 1, CmdDir: 1, Size: 64, addr: 4336100, PC: 4690474, time: 925000
setDataFromBlock:: PC = 4690474,  addr = 4336100, sameCmdDataDir? 1, size = 64, data = word[0] = 0, word[1] = 0, word[2] = 0, word[3] = 0, word[4] = 0, word[5] = 0, word[6] = 0, word[7] = 0, 
writeDataToBlock:: PC = 4690474,  addr = 4336130, sameCmdDataDir? 1, size = 8, data = word[0] = 1, 
system.mem_ctrls::access() Cmd: ReadExReq, DataDir: 1, CmdDir: 1, Size: 64, addr: 4331500, PC: 4690485, time: 927000
setDataFromBlock:: PC = 4690485,  addr = 4331500, sameCmdDataDir? 1, size = 64, data = word[0] = 0, word[1] = 0, word[2] = 0, word[3] = 0, word[4] = 0, word[5] = 0, word[6] = 0, word[7] = 0, 
writeDataToBlock:: PC = 4690485,  addr = 4331500, sameCmdDataDir? 1, size = 4, data = word[0] = 0, 
system.mem_ctrls::access() Cmd: ReadExReq, DataDir: 1, CmdDir: 1, Size: 64, addr: 4335600, PC: 4690495, time: 929500
setDataFromBlock:: PC = 4690495,  addr = 4335600, sameCmdDataDir? 1, size = 64, data = word[0] = 0, word[1] = 0, word[2] = 0, word[3] = 0, word[4] = 0, word[5] = 0, word[6] = 0, word[7] = 0, 
writeDataToBlock:: PC = 4690495,  addr = 4335650, sameCmdDataDir? 1, size = 8, data = word[0] = 71a340, 
writeDataToBlock:: PC = 4690506,  addr = 4374120, sameCmdDataDir? 1, size = 8, data = word[0] = 71a340, 
writeDataToBlock:: PC = 4690519,  addr = 4336124, sameCmdDataDir? 1, size = 4, data = word[0] = 0, 
system.mem_ctrls::access() Cmd: ReadSharedReq, DataDir: 1, CmdDir: 1, Size: 64, addr: 4045100, PC: 4690538, time: 938000
setDataFromBlock:: PC = 4690538,  addr = 4045100, sameCmdDataDir? 1, size = 64, data = word[0] = 6ff9e0, word[1] = 0, word[2] = 0, word[3] = 0, word[4] = 0, word[5] = 0, word[6] = 4009c0, word[7] = 4010f0, 
setDataFromBlock:: PC = 4690538,  addr = 4045150, sameCmdDataDir? 1, size = 8, data = word[0] = 0, 
writeDataToBlock:: PC = 4690560,  addr = 4354750, sameCmdDataDir? 1, size = 8, data = word[0] = 479285, 
writeDataToBlock:: PC = 4763552,  addr = 4354740, sameCmdDataDir? 1, size = 8, data = word[0] = ffffffff, 
writeDataToBlock:: PC = 4763559,  addr = 4354730, sameCmdDataDir? 1, size = 8, data = word[0] = 7fffffffea70, 
writeDataToBlock:: PC = 4763563,  addr = 4354720, sameCmdDataDir? 1, size = 8, data = word[0] = 18, 
setDataFromBlock:: PC = 4763576,  addr = 4345310, sameCmdDataDir? 1, size = 4, data = word[0] = 0, 
system.mem_ctrls::access() Cmd: ReadSharedReq, DataDir: 1, CmdDir: 1, Size: 64, addr: 4336600, PC: 4763601, time: 954500
setDataFromBlock:: PC = 4763601,  addr = 4336600, sameCmdDataDir? 1, size = 64, data = word[0] = 0, word[1] = 0, word[2] = 0, word[3] = 0, word[4] = 0, word[5] = 0, word[6] = 0, word[7] = 0, 
setDataFromBlock:: PC = 4763601,  addr = 4336600, sameCmdDataDir? 1, size = 4, data = word[0] = 0, 
writeDataToBlock:: PC = 4763601,  addr = 4336600, sameCmdDataDir? 1, size = 4, data = word[0] = 1, 
system.mem_ctrls::access() Cmd: ReadSharedReq, DataDir: 1, CmdDir: 1, Size: 64, addr: 4336700, PC: 4763648, time: 962000
setDataFromBlock:: PC = 4763648,  addr = 4336700, sameCmdDataDir? 1, size = 64, data = word[0] = 0, word[1] = 0, word[2] = 0, word[3] = 0, word[4] = 0, word[5] = 0, word[6] = 0, word[7] = 0, 
setDataFromBlock:: PC = 4763648,  addr = 4336720, sameCmdDataDir? 1, size = 4, data = word[0] = 0, 
writeDataToBlock:: PC = 4763676,  addr = 4336720, sameCmdDataDir? 1, size = 4, data = word[0] = 1, 
writeDataToBlock:: PC = 4763683,  addr = 4336724, sameCmdDataDir? 1, size = 4, data = word[0] = 0, 
writeDataToBlock:: PC = 4763703,  addr = 4336660, sameCmdDataDir? 1, size = 8, data = word[0] = 474190, 
writeDataToBlock:: PC = 4763707,  addr = 4336710, sameCmdDataDir? 1, size = 8, data = word[0] = 0, 
writeDataToBlock:: PC = 4763716,  addr = 4336670, sameCmdDataDir? 1, size = 8, data = word[0] = 4742b0, 
writeDataToBlock:: PC = 4763720,  addr = 4336700, sameCmdDataDir? 1, size = 8, data = word[0] = 474370, 
system.mem_ctrls::access() Cmd: ReadSharedReq, DataDir: 1, CmdDir: 1, Size: 64, addr: 4346200, PC: 4763724, time: 979500
setDataFromBlock:: PC = 4763724,  addr = 4346200, sameCmdDataDir? 1, size = 64, data = word[0] = 0, word[1] = 0, word[2] = 0, word[3] = 0, word[4] = 0, word[5] = 0, word[6] = 0, word[7] = 0, 
setDataFromBlock:: PC = 4763724,  addr = 4346210, sameCmdDataDir? 1, size = 8, data = word[0] = 0, 
writeDataToBlock:: PC = 4763731,  addr = 4336650, sameCmdDataDir? 1, size = 8, data = word[0] = 0, 
writeDataToBlock:: PC = 4763735,  addr = 4346210, sameCmdDataDir? 1, size = 8, data = word[0] = 71ada8, 
setDataFromBlock:: PC = 4763742,  addr = 4345310, sameCmdDataDir? 1, size = 4, data = word[0] = 0, 
setDataFromBlock:: PC = 4763766,  addr = 4336600, sameCmdDataDir? 1, size = 4, data = word[0] = 1, 
writeDataToBlock:: PC = 4763766,  addr = 4336600, sameCmdDataDir? 1, size = 4, data = word[0] = 0, 
setDataFromBlock:: PC = 4763784,  addr = 4354720, sameCmdDataDir? 1, size = 8, data = word[0] = 18, 
setDataFromBlock:: PC = 4763785,  addr = 4354730, sameCmdDataDir? 1, size = 8, data = word[0] = 7fffffffea70, 
setDataFromBlock:: PC = 4763789,  addr = 4354740, sameCmdDataDir? 1, size = 8, data = word[0] = ffffffff, 
setDataFromBlock:: PC = 4763791,  addr = 4354750, sameCmdDataDir? 1, size = 8, data = word[0] = 479285, 
setDataFromBlock:: PC = 4690565,  addr = 4336310, sameCmdDataDir? 1, size = 8, data = word[0] = 7fffffffedb8, 
setDataFromBlock:: PC = 4690572,  addr = 4040510, sameCmdDataDir? 1, size = 4, data = word[0] = 0, 
setDataFromBlock:: PC = 4690601,  addr = 4356670, sameCmdDataDir? 1, size = 8, data = word[0] = 0, 
system.mem_ctrls::access() Cmd: ReadSharedReq, DataDir: 1, CmdDir: 1, Size: 64, addr: 4331400, PC: 4690622, time: 1013000
setDataFromBlock:: PC = 4690622,  addr = 4331400, sameCmdDataDir? 1, size = 64, data = word[0] = 0, word[1] = 0, word[2] = 0, word[3] = 0, word[4] = 0, word[5] = 0, word[6] = 0, word[7] = 0, 
setDataFromBlock:: PC = 4690622,  addr = 4331400, sameCmdDataDir? 1, size = 8, data = word[0] = 0, 
writeDataToBlock:: PC = 4690636,  addr = 4051700, sameCmdDataDir? 1, size = 4, data = word[0] = 1, 
setDataFromBlock:: PC = 4690650,  addr = 4354770, sameCmdDataDir? 1, size = 8, data = word[0] = 18, 
setDataFromBlock:: PC = 4690651,  addr = 4355000, sameCmdDataDir? 1, size = 8, data = word[0] = 7fffffffea70, 
setDataFromBlock:: PC = 4690652,  addr = 4355010, sameCmdDataDir? 1, size = 8, data = word[0] = 7fffffffedb8, 
setDataFromBlock:: PC = 4690654,  addr = 4355020, sameCmdDataDir? 1, size = 8, data = word[0] = 7fffffffeb00, 
setDataFromBlock:: PC = 4690656,  addr = 4355030, sameCmdDataDir? 1, size = 8, data = word[0] = 47a014, 
setDataFromBlock:: PC = 4694039,  addr = 4355040, sameCmdDataDir? 1, size = 8, data = word[0] = 0, 
writeDataToBlock:: PC = 4683136,  addr = 4355040, sameCmdDataDir? 1, size = 8, data = word[0] = 7fffffffedb8, 
writeDataToBlock:: PC = 4683141,  addr = 4355020, sameCmdDataDir? 1, size = 8, data = word[0] = 0, 
writeDataToBlock:: PC = 4683149,  addr = 4355030, sameCmdDataDir? 1, size = 8, data = word[0] = 7fffffffea70, 
setDataFromBlock:: PC = 4683158,  addr = 4051650, sameCmdDataDir? 1, size = 8, data = word[0] = 0, 
setDataFromBlock:: PC = 4683174,  addr = 4336100, sameCmdDataDir? 1, size = 1, data = word[0] = 0, 
setDataFromBlock:: PC = 4683188,  addr = 4374120, sameCmdDataDir? 1, size = 8, data = word[0] = 71a340, 
setDataFromBlock:: PC = 4683210,  addr = 4345310, sameCmdDataDir? 1, size = 4, data = word[0] = 0, 
setDataFromBlock:: PC = 4683225,  addr = 4331500, sameCmdDataDir? 1, size = 4, data = word[0] = 0, 
writeDataToBlock:: PC = 4683225,  addr = 4331500, sameCmdDataDir? 1, size = 4, data = word[0] = 1, 
writeDataToBlock:: PC = 4683238,  addr = 4355010, sameCmdDataDir? 1, size = 8, data = word[0] = 4775eb, 
writeDataToBlock:: PC = 4677728,  addr = 4355000, sameCmdDataDir? 1, size = 8, data = word[0] = 0, 
writeDataToBlock:: PC = 4677733,  addr = 4354770, sameCmdDataDir? 1, size = 8, data = word[0] = 7fffffffeb86, 
writeDataToBlock:: PC = 4677735,  addr = 4354760, sameCmdDataDir? 1, size = 8, data = word[0] = 7fffffffeb00, 
writeDataToBlock:: PC = 4677737,  addr = 4354750, sameCmdDataDir? 1, size = 8, data = word[0] = 18, 
writeDataToBlock:: PC = 4677739,  addr = 4354740, sameCmdDataDir? 1, size = 8, data = word[0] = 7fffffffea70, 
writeDataToBlock:: PC = 4677740,  addr = 4354730, sameCmdDataDir? 1, size = 8, data = word[0] = 71a340, 
setDataFromBlock:: PC = 4677782,  addr = 4336110, sameCmdDataDir? 1, size = 8, data = word[0] = 0, 
system.mem_ctrls::access() Cmd: ReadSharedReq, DataDir: 1, CmdDir: 1, Size: 64, addr: 4331700, PC: 4678000, time: 1087000
setDataFromBlock:: PC = 4678000,  addr = 4331700, sameCmdDataDir? 1, size = 64, data = word[0] = 0, word[1] = 0, word[2] = 0, word[3] = 0, word[4] = 0, word[5] = 0, word[6] = 0, word[7] = 0, 
setDataFromBlock:: PC = 4678000,  addr = 4331740, sameCmdDataDir? 1, size = 8, data = word[0] = 0, 
system.mem_ctrls::access() Cmd: ReadExReq, DataDir: 1, CmdDir: 1, Size: 64, addr: 4354500, PC: 4680026, time: 1093000
setDataFromBlock:: PC = 4680026,  addr = 4354500, sameCmdDataDir? 1, size = 64, data = word[0] = 0, word[1] = 0, word[2] = 0, word[3] = 0, word[4] = 0, word[5] = 0, word[6] = 0, word[7] = 0, 
writeDataToBlock:: PC = 4680026,  addr = 4354570, sameCmdDataDir? 1, size = 4, data = word[0] = 4, 
writeDataToBlock:: PC = 4680031,  addr = 4354550, sameCmdDataDir? 1, size = 8, data = word[0] = 18, 
writeDataToBlock:: PC = 4680036,  addr = 4354530, sameCmdDataDir? 1, size = 8, data = word[0] = 476969, 
writeDataToBlock:: PC = 4671424,  addr = 4354520, sameCmdDataDir? 1, size = 8, data = word[0] = 71a3a8, 
writeDataToBlock:: PC = 4671429,  addr = 4354510, sameCmdDataDir? 1, size = 8, data = word[0] = 7fffffffeb86, 
writeDataToBlock:: PC = 4671431,  addr = 4354500, sameCmdDataDir? 1, size = 8, data = word[0] = 7fffffffeb00, 
system.mem_ctrls::access() Cmd: ReadExReq, DataDir: 1, CmdDir: 1, Size: 64, addr: 4354400, PC: 4671433, time: 1101500
setDataFromBlock:: PC = 4671433,  addr = 4354400, sameCmdDataDir? 1, size = 64, data = word[0] = 0, word[1] = 0, word[2] = 0, word[3] = 0, word[4] = 0, word[5] = 0, word[6] = 0, word[7] = 0, 
writeDataToBlock:: PC = 4671433,  addr = 4354470, sameCmdDataDir? 1, size = 8, data = word[0] = 0, 
writeDataToBlock:: PC = 4671435,  addr = 4354460, sameCmdDataDir? 1, size = 8, data = word[0] = 20, 
writeDataToBlock:: PC = 4671436,  addr = 4354450, sameCmdDataDir? 1, size = 8, data = word[0] = 71a340, 
setDataFromBlock:: PC = 4671441,  addr = 4336110, sameCmdDataDir? 1, size = 8, data = word[0] = 0, 
system.mem_ctrls::access() Cmd: ReadExReq, DataDir: 1, CmdDir: 1, Size: 64, addr: 4331600, PC: 4672320, time: 1115000
setDataFromBlock:: PC = 4672320,  addr = 4331600, sameCmdDataDir? 1, size = 64, data = word[0] = 0, word[1] = 0, word[2] = 0, word[3] = 0, word[4] = 0, word[5] = 0, word[6] = 0, word[7] = 0, 
writeDataToBlock:: PC = 4672320,  addr = 4331660, sameCmdDataDir? 1, size = 8, data = word[0] = 71a398, 
writeDataToBlock:: PC = 4672324,  addr = 4331650, sameCmdDataDir? 1, size = 8, data = word[0] = 71a398, 
writeDataToBlock:: PC = 4672320,  addr = 4331700, sameCmdDataDir? 1, size = 8, data = word[0] = 71a3a8, 
writeDataToBlock:: PC = 4672324,  addr = 4331670, sameCmdDataDir? 1, size = 8, data = word[0] = 71a3a8, 
writeDataToBlock:: PC = 4672320,  addr = 4331720, sameCmdDataDir? 1, size = 8, data = word[0] = 71a3b8, 
writeDataToBlock:: PC = 4672324,  addr = 4331710, sameCmdDataDir? 1, size = 8, data = word[0] = 71a3b8, 
writeDataToBlock:: PC = 4672320,  addr = 4331740, sameCmdDataDir? 1, size = 8, data = word[0] = 71a3c8, 
writeDataToBlock:: PC = 4672324,  addr = 4331730, sameCmdDataDir? 1, size = 8, data = word[0] = 71a3c8, 
writeDataToBlock:: PC = 4672320,  addr = 4331760, sameCmdDataDir? 1, size = 8, data = word[0] = 71a3d8, 
writeDataToBlock:: PC = 4672324,  addr = 4331750, sameCmdDataDir? 1, size = 8, data = word[0] = 71a3d8, 
system.mem_ctrls::access() Cmd: ReadExReq, DataDir: 1, CmdDir: 1, Size: 64, addr: 4332000, PC: 4672320, time: 1137500
setDataFromBlock:: PC = 4672320,  addr = 4332000, sameCmdDataDir? 1, size = 64, data = word[0] = 0, word[1] = 0, word[2] = 0, word[3] = 0, word[4] = 0, word[5] = 0, word[6] = 0, word[7] = 0, 
writeDataToBlock:: PC = 4672320,  addr = 4332000, sameCmdDataDir? 1, size = 8, data = word[0] = 71a3e8, 
writeDataToBlock:: PC = 4672324,  addr = 4331770, sameCmdDataDir? 1, size = 8, data = word[0] = 71a3e8, 
writeDataToBlock:: PC = 4672320,  addr = 4332020, sameCmdDataDir? 1, size = 8, data = word[0] = 71a3f8, 
writeDataToBlock:: PC = 4672324,  addr = 4332010, sameCmdDataDir? 1, size = 8, data = word[0] = 71a3f8, 
writeDataToBlock:: PC = 4672320,  addr = 4332040, sameCmdDataDir? 1, size = 8, data = word[0] = 71a408, 
writeDataToBlock:: PC = 4672324,  addr = 4332030, sameCmdDataDir? 1, size = 8, data = word[0] = 71a408, 
writeDataToBlock:: PC = 4672320,  addr = 4332060, sameCmdDataDir? 1, size = 8, data = word[0] = 71a418, 
writeDataToBlock:: PC = 4672324,  addr = 4332050, sameCmdDataDir? 1, size = 8, data = word[0] = 71a418, 
system.mem_ctrls::access() Cmd: ReadExReq, DataDir: 1, CmdDir: 1, Size: 64, addr: 4332100, PC: 4672320, time: 1155500
setDataFromBlock:: PC = 4672320,  addr = 4332100, sameCmdDataDir? 1, size = 64, data = word[0] = 0, word[1] = 0, word[2] = 0, word[3] = 0, word[4] = 0, word[5] = 0, word[6] = 0, word[7] = 0, 
writeDataToBlock:: PC = 4672320,  addr = 4332100, sameCmdDataDir? 1, size = 8, data = word[0] = 71a428, 
writeDataToBlock:: PC = 4672324,  addr = 4332070, sameCmdDataDir? 1, size = 8, data = word[0] = 71a428, 
writeDataToBlock:: PC = 4672320,  addr = 4332120, sameCmdDataDir? 1, size = 8, data = word[0] = 71a438, 
writeDataToBlock:: PC = 4672324,  addr = 4332110, sameCmdDataDir? 1, size = 8, data = word[0] = 71a438, 
writeDataToBlock:: PC = 4672320,  addr = 4332140, sameCmdDataDir? 1, size = 8, data = word[0] = 71a448, 
writeDataToBlock:: PC = 4672324,  addr = 4332130, sameCmdDataDir? 1, size = 8, data = word[0] = 71a448, 
writeDataToBlock:: PC = 4672320,  addr = 4332160, sameCmdDataDir? 1, size = 8, data = word[0] = 71a458, 
writeDataToBlock:: PC = 4672324,  addr = 4332150, sameCmdDataDir? 1, size = 8, data = word[0] = 71a458, 
system.mem_ctrls::access() Cmd: ReadExReq, DataDir: 1, CmdDir: 1, Size: 64, addr: 4332200, PC: 4672320, time: 1173500
setDataFromBlock:: PC = 4672320,  addr = 4332200, sameCmdDataDir? 1, size = 64, data = word[0] = 0, word[1] = 0, word[2] = 0, word[3] = 0, word[4] = 0, word[5] = 0, word[6] = 0, word[7] = 0, 
writeDataToBlock:: PC = 4672320,  addr = 4332200, sameCmdDataDir? 1, size = 8, data = word[0] = 71a468, 
writeDataToBlock:: PC = 4672324,  addr = 4332170, sameCmdDataDir? 1, size = 8, data = word[0] = 71a468, 
writeDataToBlock:: PC = 4672320,  addr = 4332220, sameCmdDataDir? 1, size = 8, data = word[0] = 71a478, 
writeDataToBlock:: PC = 4672324,  addr = 4332210, sameCmdDataDir? 1, size = 8, data = word[0] = 71a478, 
writeDataToBlock:: PC = 4672320,  addr = 4332240, sameCmdDataDir? 1, size = 8, data = word[0] = 71a488, 
writeDataToBlock:: PC = 4672324,  addr = 4332230, sameCmdDataDir? 1, size = 8, data = word[0] = 71a488, 
writeDataToBlock:: PC = 4672320,  addr = 4332260, sameCmdDataDir? 1, size = 8, data = word[0] = 71a498, 
writeDataToBlock:: PC = 4672324,  addr = 4332250, sameCmdDataDir? 1, size = 8, data = word[0] = 71a498, 
system.mem_ctrls::access() Cmd: ReadExReq, DataDir: 1, CmdDir: 1, Size: 64, addr: 4332300, PC: 4672320, time: 1191500
setDataFromBlock:: PC = 4672320,  addr = 4332300, sameCmdDataDir? 1, size = 64, data = word[0] = 0, word[1] = 0, word[2] = 0, word[3] = 0, word[4] = 0, word[5] = 0, word[6] = 0, word[7] = 0, 
writeDataToBlock:: PC = 4672320,  addr = 4332300, sameCmdDataDir? 1, size = 8, data = word[0] = 71a4a8, 
writeDataToBlock:: PC = 4672324,  addr = 4332270, sameCmdDataDir? 1, size = 8, data = word[0] = 71a4a8, 
writeDataToBlock:: PC = 4672320,  addr = 4332320, sameCmdDataDir? 1, size = 8, data = word[0] = 71a4b8, 
writeDataToBlock:: PC = 4672324,  addr = 4332310, sameCmdDataDir? 1, size = 8, data = word[0] = 71a4b8, 
writeDataToBlock:: PC = 4672320,  addr = 4332340, sameCmdDataDir? 1, size = 8, data = word[0] = 71a4c8, 
writeDataToBlock:: PC = 4672324,  addr = 4332330, sameCmdDataDir? 1, size = 8, data = word[0] = 71a4c8, 
writeDataToBlock:: PC = 4672320,  addr = 4332360, sameCmdDataDir? 1, size = 8, data = word[0] = 71a4d8, 
writeDataToBlock:: PC = 4672324,  addr = 4332350, sameCmdDataDir? 1, size = 8, data = word[0] = 71a4d8, 
system.mem_ctrls::access() Cmd: ReadExReq, DataDir: 1, CmdDir: 1, Size: 64, addr: 4332400, PC: 4672320, time: 1209500
setDataFromBlock:: PC = 4672320,  addr = 4332400, sameCmdDataDir? 1, size = 64, data = word[0] = 0, word[1] = 0, word[2] = 0, word[3] = 0, word[4] = 0, word[5] = 0, word[6] = 0, word[7] = 0, 
writeDataToBlock:: PC = 4672320,  addr = 4332400, sameCmdDataDir? 1, size = 8, data = word[0] = 71a4e8, 
writeDataToBlock:: PC = 4672324,  addr = 4332370, sameCmdDataDir? 1, size = 8, data = word[0] = 71a4e8, 
writeDataToBlock:: PC = 4672320,  addr = 4332420, sameCmdDataDir? 1, size = 8, data = word[0] = 71a4f8, 
writeDataToBlock:: PC = 4672324,  addr = 4332410, sameCmdDataDir? 1, size = 8, data = word[0] = 71a4f8, 
writeDataToBlock:: PC = 4672320,  addr = 4332440, sameCmdDataDir? 1, size = 8, data = word[0] = 71a508, 
writeDataToBlock:: PC = 4672324,  addr = 4332430, sameCmdDataDir? 1, size = 8, data = word[0] = 71a508, 
writeDataToBlock:: PC = 4672320,  addr = 4332460, sameCmdDataDir? 1, size = 8, data = word[0] = 71a518, 
writeDataToBlock:: PC = 4672324,  addr = 4332450, sameCmdDataDir? 1, size = 8, data = word[0] = 71a518, 
system.mem_ctrls::access() Cmd: ReadExReq, DataDir: 1, CmdDir: 1, Size: 64, addr: 4332500, PC: 4672320, time: 1227500
setDataFromBlock:: PC = 4672320,  addr = 4332500, sameCmdDataDir? 1, size = 64, data = word[0] = 0, word[1] = 0, word[2] = 0, word[3] = 0, word[4] = 0, word[5] = 0, word[6] = 0, word[7] = 0, 
writeDataToBlock:: PC = 4672320,  addr = 4332500, sameCmdDataDir? 1, size = 8, data = word[0] = 71a528, 
writeDataToBlock:: PC = 4672324,  addr = 4332470, sameCmdDataDir? 1, size = 8, data = word[0] = 71a528, 
writeDataToBlock:: PC = 4672320,  addr = 4332520, sameCmdDataDir? 1, size = 8, data = word[0] = 71a538, 
writeDataToBlock:: PC = 4672324,  addr = 4332510, sameCmdDataDir? 1, size = 8, data = word[0] = 71a538, 
writeDataToBlock:: PC = 4672320,  addr = 4332540, sameCmdDataDir? 1, size = 8, data = word[0] = 71a548, 
writeDataToBlock:: PC = 4672324,  addr = 4332530, sameCmdDataDir? 1, size = 8, data = word[0] = 71a548, 
writeDataToBlock:: PC = 4672320,  addr = 4332560, sameCmdDataDir? 1, size = 8, data = word[0] = 71a558, 
writeDataToBlock:: PC = 4672324,  addr = 4332550, sameCmdDataDir? 1, size = 8, data = word[0] = 71a558, 
system.mem_ctrls::access() Cmd: ReadExReq, DataDir: 1, CmdDir: 1, Size: 64, addr: 4332600, PC: 4672320, time: 1245500
setDataFromBlock:: PC = 4672320,  addr = 4332600, sameCmdDataDir? 1, size = 64, data = word[0] = 0, word[1] = 0, word[2] = 0, word[3] = 0, word[4] = 0, word[5] = 0, word[6] = 0, word[7] = 0, 
writeDataToBlock:: PC = 4672320,  addr = 4332600, sameCmdDataDir? 1, size = 8, data = word[0] = 71a568, 
writeDataToBlock:: PC = 4672324,  addr = 4332570, sameCmdDataDir? 1, size = 8, data = word[0] = 71a568, 
writeDataToBlock:: PC = 4672320,  addr = 4332620, sameCmdDataDir? 1, size = 8, data = word[0] = 71a578, 
writeDataToBlock:: PC = 4672324,  addr = 4332610, sameCmdDataDir? 1, size = 8, data = word[0] = 71a578, 
writeDataToBlock:: PC = 4672320,  addr = 4332640, sameCmdDataDir? 1, size = 8, data = word[0] = 71a588, 
writeDataToBlock:: PC = 4672324,  addr = 4332630, sameCmdDataDir? 1, size = 8, data = word[0] = 71a588, 
writeDataToBlock:: PC = 4672320,  addr = 4332660, sameCmdDataDir? 1, size = 8, data = word[0] = 71a598, 
writeDataToBlock:: PC = 4672324,  addr = 4332650, sameCmdDataDir? 1, size = 8, data = word[0] = 71a598, 
system.mem_ctrls::access() Cmd: ReadExReq, DataDir: 1, CmdDir: 1, Size: 64, addr: 4332700, PC: 4672320, time: 1263500
setDataFromBlock:: PC = 4672320,  addr = 4332700, sameCmdDataDir? 1, size = 64, data = word[0] = 0, word[1] = 0, word[2] = 0, word[3] = 0, word[4] = 0, word[5] = 0, word[6] = 0, word[7] = 0, 
writeDataToBlock:: PC = 4672320,  addr = 4332700, sameCmdDataDir? 1, size = 8, data = word[0] = 71a5a8, 
writeDataToBlock:: PC = 4672324,  addr = 4332670, sameCmdDataDir? 1, size = 8, data = word[0] = 71a5a8, 
writeDataToBlock:: PC = 4672320,  addr = 4332720, sameCmdDataDir? 1, size = 8, data = word[0] = 71a5b8, 
writeDataToBlock:: PC = 4672324,  addr = 4332710, sameCmdDataDir? 1, size = 8, data = word[0] = 71a5b8, 
writeDataToBlock:: PC = 4672320,  addr = 4332740, sameCmdDataDir? 1, size = 8, data = word[0] = 71a5c8, 
writeDataToBlock:: PC = 4672324,  addr = 4332730, sameCmdDataDir? 1, size = 8, data = word[0] = 71a5c8, 
writeDataToBlock:: PC = 4672320,  addr = 4332760, sameCmdDataDir? 1, size = 8, data = word[0] = 71a5d8, 
writeDataToBlock:: PC = 4672324,  addr = 4332750, sameCmdDataDir? 1, size = 8, data = word[0] = 71a5d8, 
system.mem_ctrls::access() Cmd: ReadExReq, DataDir: 1, CmdDir: 1, Size: 64, addr: 4333000, PC: 4672320, time: 1281500
setDataFromBlock:: PC = 4672320,  addr = 4333000, sameCmdDataDir? 1, size = 64, data = word[0] = 0, word[1] = 0, word[2] = 0, word[3] = 0, word[4] = 0, word[5] = 0, word[6] = 0, word[7] = 0, 
writeDataToBlock:: PC = 4672320,  addr = 4333000, sameCmdDataDir? 1, size = 8, data = word[0] = 71a5e8, 
writeDataToBlock:: PC = 4672324,  addr = 4332770, sameCmdDataDir? 1, size = 8, data = word[0] = 71a5e8, 
writeDataToBlock:: PC = 4672320,  addr = 4333020, sameCmdDataDir? 1, size = 8, data = word[0] = 71a5f8, 
writeDataToBlock:: PC = 4672324,  addr = 4333010, sameCmdDataDir? 1, size = 8, data = word[0] = 71a5f8, 
writeDataToBlock:: PC = 4672320,  addr = 4333040, sameCmdDataDir? 1, size = 8, data = word[0] = 71a608, 
writeDataToBlock:: PC = 4672324,  addr = 4333030, sameCmdDataDir? 1, size = 8, data = word[0] = 71a608, 
writeDataToBlock:: PC = 4672320,  addr = 4333060, sameCmdDataDir? 1, size = 8, data = word[0] = 71a618, 
writeDataToBlock:: PC = 4672324,  addr = 4333050, sameCmdDataDir? 1, size = 8, data = word[0] = 71a618, 
system.mem_ctrls::access() Cmd: ReadExReq, DataDir: 1, CmdDir: 1, Size: 64, addr: 4333100, PC: 4672320, time: 1299500
setDataFromBlock:: PC = 4672320,  addr = 4333100, sameCmdDataDir? 1, size = 64, data = word[0] = 0, word[1] = 0, word[2] = 0, word[3] = 0, word[4] = 0, word[5] = 0, word[6] = 0, word[7] = 0, 
writeDataToBlock:: PC = 4672320,  addr = 4333100, sameCmdDataDir? 1, size = 8, data = word[0] = 71a628, 
writeDataToBlock:: PC = 4672324,  addr = 4333070, sameCmdDataDir? 1, size = 8, data = word[0] = 71a628, 
writeDataToBlock:: PC = 4672320,  addr = 4333120, sameCmdDataDir? 1, size = 8, data = word[0] = 71a638, 
writeDataToBlock:: PC = 4672324,  addr = 4333110, sameCmdDataDir? 1, size = 8, data = word[0] = 71a638, 
writeDataToBlock:: PC = 4672320,  addr = 4333140, sameCmdDataDir? 1, size = 8, data = word[0] = 71a648, 
writeDataToBlock:: PC = 4672324,  addr = 4333130, sameCmdDataDir? 1, size = 8, data = word[0] = 71a648, 
writeDataToBlock:: PC = 4672320,  addr = 4333160, sameCmdDataDir? 1, size = 8, data = word[0] = 71a658, 
writeDataToBlock:: PC = 4672324,  addr = 4333150, sameCmdDataDir? 1, size = 8, data = word[0] = 71a658, 
system.mem_ctrls::access() Cmd: ReadExReq, DataDir: 1, CmdDir: 1, Size: 64, addr: 4333200, PC: 4672320, time: 1317500
setDataFromBlock:: PC = 4672320,  addr = 4333200, sameCmdDataDir? 1, size = 64, data = word[0] = 0, word[1] = 0, word[2] = 0, word[3] = 0, word[4] = 0, word[5] = 0, word[6] = 0, word[7] = 0, 
writeDataToBlock:: PC = 4672320,  addr = 4333200, sameCmdDataDir? 1, size = 8, data = word[0] = 71a668, 
writeDataToBlock:: PC = 4672324,  addr = 4333170, sameCmdDataDir? 1, size = 8, data = word[0] = 71a668, 
writeDataToBlock:: PC = 4672320,  addr = 4333220, sameCmdDataDir? 1, size = 8, data = word[0] = 71a678, 
writeDataToBlock:: PC = 4672324,  addr = 4333210, sameCmdDataDir? 1, size = 8, data = word[0] = 71a678, 
writeDataToBlock:: PC = 4672320,  addr = 4333240, sameCmdDataDir? 1, size = 8, data = word[0] = 71a688, 
writeDataToBlock:: PC = 4672324,  addr = 4333230, sameCmdDataDir? 1, size = 8, data = word[0] = 71a688, 
writeDataToBlock:: PC = 4672320,  addr = 4333260, sameCmdDataDir? 1, size = 8, data = word[0] = 71a698, 
writeDataToBlock:: PC = 4672324,  addr = 4333250, sameCmdDataDir? 1, size = 8, data = word[0] = 71a698, 
system.mem_ctrls::access() Cmd: ReadExReq, DataDir: 1, CmdDir: 1, Size: 64, addr: 4333300, PC: 4672320, time: 1335500
setDataFromBlock:: PC = 4672320,  addr = 4333300, sameCmdDataDir? 1, size = 64, data = word[0] = 0, word[1] = 0, word[2] = 0, word[3] = 0, word[4] = 0, word[5] = 0, word[6] = 0, word[7] = 0, 
writeDataToBlock:: PC = 4672320,  addr = 4333300, sameCmdDataDir? 1, size = 8, data = word[0] = 71a6a8, 
writeDataToBlock:: PC = 4672324,  addr = 4333270, sameCmdDataDir? 1, size = 8, data = word[0] = 71a6a8, 
writeDataToBlock:: PC = 4672320,  addr = 4333320, sameCmdDataDir? 1, size = 8, data = word[0] = 71a6b8, 
writeDataToBlock:: PC = 4672324,  addr = 4333310, sameCmdDataDir? 1, size = 8, data = word[0] = 71a6b8, 
writeDataToBlock:: PC = 4672320,  addr = 4333340, sameCmdDataDir? 1, size = 8, data = word[0] = 71a6c8, 
writeDataToBlock:: PC = 4672324,  addr = 4333330, sameCmdDataDir? 1, size = 8, data = word[0] = 71a6c8, 
[...]
writeDataToBlock:: PC = 4549281,  addr = 4355250, sameCmdDataDir? 1, size = 8, data = word[0] = 0, 
setDataFromBlock:: PC = 4549337,  addr = 4355250, sameCmdDataDir? 1, size = 8, data = word[0] = 0, 
setDataFromBlock:: PC = 4549338,  addr = 4355260, sameCmdDataDir? 1, size = 8, data = word[0] = 456aa0, 
writeDataToBlock:: PC = 4976156,  addr = 4355250, sameCmdDataDir? 1, size = 8, data = word[0] = 4bee21, 
system.mem_ctrls::access() Cmd: ReadSharedReq, DataDir: 1, CmdDir: 1, Size: 64, addr: 4053700, PC: 4194944, time: 93111500
setDataFromBlock:: PC = 4194944,  addr = 4053700, sameCmdDataDir? 1, size = 64, data = word[0] = 0, word[1] = 0, word[2] = 0, word[3] = 0, word[4] = 0, word[5] = 0, word[6] = 0, word[7] = 0, 
setDataFromBlock:: PC = 4194944,  addr = 4053740, sameCmdDataDir? 1, size = 1, data = word[0] = 0, 
writeDataToBlock:: PC = 4194953,  addr = 4355240, sameCmdDataDir? 1, size = 8, data = word[0] = 456aa0, 
writeDataToBlock:: PC = 4194957,  addr = 4355230, sameCmdDataDir? 1, size = 8, data = word[0] = 0, 
setDataFromBlock:: PC = 4194974,  addr = 4053750, sameCmdDataDir? 1, size = 8, data = word[0] = 0, 
writeDataToBlock:: PC = 4195004,  addr = 4053750, sameCmdDataDir? 1, size = 8, data = word[0] = 1, 
setDataFromBlock:: PC = 4195011,  addr = 3772670, sameCmdDataDir? 1, size = 8, data = word[0] = 4b7430, 
writeDataToBlock:: PC = 4195011,  addr = 4355210, sameCmdDataDir? 1, size = 8, data = word[0] = 4002ca, 
system.mem_ctrls::access() Cmd: ReadSharedReq, DataDir: 1, CmdDir: 1, Size: 64, addr: 4344300, PC: 4944948, time: 93134000
setDataFromBlock:: PC = 4944948,  addr = 4344300, sameCmdDataDir? 1, size = 64, data = word[0] = 0, word[1] = 0, word[2] = 0, word[3] = 0, word[4] = 0, word[5] = 0, word[6] = 0, word[7] = 0, 
setDataFromBlock:: PC = 4944948,  addr = 4344370, sameCmdDataDir? 1, size = 8, data = word[0] = 0, 
setDataFromBlock:: PC = 4944978,  addr = 4355210, sameCmdDataDir? 1, size = 8, data = word[0] = 4002ca, 
setDataFromBlock:: PC = 4195018,  addr = 4053750, sameCmdDataDir? 1, size = 8, data = word[0] = 1, 
writeDataToBlock:: PC = 4195030,  addr = 4355210, sameCmdDataDir? 1, size = 8, data = word[0] = 4002db, 
writeDataToBlock:: PC = 4194837,  addr = 4355200, sameCmdDataDir? 1, size = 8, data = word[0] = 7fffffffeaa0, 
setDataFromBlock:: PC = 4194853,  addr = 4355200, sameCmdDataDir? 1, size = 8, data = word[0] = 7fffffffeaa0, 
setDataFromBlock:: PC = 4194854,  addr = 4355210, sameCmdDataDir? 1, size = 8, data = word[0] = 4002db, 
writeDataToBlock:: PC = 4195050,  addr = 4355210, sameCmdDataDir? 1, size = 8, data = word[0] = 4002ef, 
writeDataToBlock:: PC = 4545904,  addr = 4355200, sameCmdDataDir? 1, size = 8, data = word[0] = 0, 
writeDataToBlock:: PC = 4545909,  addr = 4355170, sameCmdDataDir? 1, size = 8, data = word[0] = 7fffffffeaa0, 
writeDataToBlock:: PC = 4545913,  addr = 4355160, sameCmdDataDir? 1, size = 8, data = word[0] = 1, 
setDataFromBlock:: PC = 4545920,  addr = 3317030, sameCmdDataDir? 1, size = 4, data = word[0] = 1c, 
setDataFromBlock:: PC = 4545930,  addr = 4043740, sameCmdDataDir? 1, size = 8, data = word[0] = 0, 
setDataFromBlock:: PC = 4545954,  addr = 4317420, sameCmdDataDir? 1, size = 8, data = word[0] = 704800, 
setDataFromBlock:: PC = 4545966,  addr = 4054030, sameCmdDataDir? 1, size = 8, data = word[0] = 4d9e18, 
setDataFromBlock:: PC = 4546066,  addr = 4054050, sameCmdDataDir? 1, size = 8, data = word[0] = 0, 
writeDataToBlock:: PC = 4546070,  addr = 4317420, sameCmdDataDir? 1, size = 8, data = word[0] = 0, 
setDataFromBlock:: PC = 4546098,  addr = 4355160, sameCmdDataDir? 1, size = 8, data = word[0] = 1, 
setDataFromBlock:: PC = 4546099,  addr = 4355170, sameCmdDataDir? 1, size = 8, data = word[0] = 7fffffffeaa0, 
setDataFromBlock:: PC = 4546100,  addr = 4355200, sameCmdDataDir? 1, size = 8, data = word[0] = 0, 
setDataFromBlock:: PC = 4546102,  addr = 4355210, sameCmdDataDir? 1, size = 8, data = word[0] = 4002ef, 
writeDataToBlock:: PC = 4195055,  addr = 4053740, sameCmdDataDir? 1, size = 1, data = word[0] = 1, 
setDataFromBlock:: PC = 4195066,  addr = 4355230, sameCmdDataDir? 1, size = 8, data = word[0] = 0, 
setDataFromBlock:: PC = 4195067,  addr = 4355240, sameCmdDataDir? 1, size = 8, data = word[0] = 456aa0, 
setDataFromBlock:: PC = 4195068,  addr = 4355250, sameCmdDataDir? 1, size = 8, data = word[0] = 4bee21, 
setDataFromBlock:: PC = 4976165,  addr = 4355270, sameCmdDataDir? 1, size = 8, data = word[0] = 45f2ee, 
setDataFromBlock:: PC = 4584126,  addr = 4046270, sameCmdDataDir? 1, size = 8, data = word[0] = 719e80, 
setDataFromBlock:: PC = 4583968,  addr = 4327210, sameCmdDataDir? 1, size = 8, data = word[0] = 0, 
setDataFromBlock:: PC = 4584035,  addr = 4327200, sameCmdDataDir? 1, size = 8, data = word[0] = 0, 
writeDataToBlock:: PC = 4584041,  addr = 4046270, sameCmdDataDir? 1, size = 8, data = word[0] = 0, 
setDataFromBlock:: PC = 4584072,  addr = 3317010, sameCmdDataDir? 1, size = 8, data = word[0] = 472400, 
writeDataToBlock:: PC = 4584072,  addr = 4355270, sameCmdDataDir? 1, size = 8, data = word[0] = 45f28b, 
writeDataToBlock:: PC = 4662272,  addr = 4355260, sameCmdDataDir? 1, size = 8, data = word[0] = 7fffffffeb86, 
writeDataToBlock:: PC = 4662276,  addr = 4355250, sameCmdDataDir? 1, size = 8, data = word[0] = 7fffffffeb00, 
writeDataToBlock:: PC = 4662278,  addr = 4355240, sameCmdDataDir? 1, size = 8, data = word[0] = 0, 
writeDataToBlock:: PC = 4662280,  addr = 4355230, sameCmdDataDir? 1, size = 8, data = word[0] = 4d9e08, 
writeDataToBlock:: PC = 4662281,  addr = 4355220, sameCmdDataDir? 1, size = 8, data = word[0] = 0, 
writeDataToBlock:: PC = 4662282,  addr = 4355210, sameCmdDataDir? 1, size = 8, data = word[0] = 47240f, 
writeDataToBlock:: PC = 4661504,  addr = 4355200, sameCmdDataDir? 1, size = 8, data = word[0] = 0, 
writeDataToBlock:: PC = 4661511,  addr = 4355170, sameCmdDataDir? 1, size = 8, data = word[0] = 7fffffffeb86, 
writeDataToBlock:: PC = 4661516,  addr = 4355160, sameCmdDataDir? 1, size = 8, data = word[0] = 7fffffffeb00, 
writeDataToBlock:: PC = 4661518,  addr = 4355150, sameCmdDataDir? 1, size = 8, data = word[0] = 0, 
writeDataToBlock:: PC = 4661520,  addr = 4355140, sameCmdDataDir? 1, size = 8, data = word[0] = 4d9e08, 
writeDataToBlock:: PC = 4661521,  addr = 4355130, sameCmdDataDir? 1, size = 8, data = word[0] = 0, 
writeDataToBlock:: PC = 4661544,  addr = 4355060, sameCmdDataDir? 1, size = 8, data = word[0] = 4712c0, 
writeDataToBlock:: PC = 4661552,  addr = 4355070, sameCmdDataDir? 1, size = 8, data = word[0] = 0, 
setDataFromBlock:: PC = 4661642,  addr = 4047540, sameCmdDataDir? 1, size = 8, data = word[0] = 703e80, 
system.mem_ctrls::access() Cmd: ReadSharedReq, DataDir: 1, CmdDir: 1, Size: 64, addr: 4331200, PC: 4661649, time: 93258500
setDataFromBlock:: PC = 4661649,  addr = 4331200, sameCmdDataDir? 1, size = 64, data = word[0] = 0, word[1] = 0, word[2] = 0, word[3] = 0, word[4] = 0, word[5] = 0, word[6] = 0, word[7] = 0, 
setDataFromBlock:: PC = 4661649,  addr = 4331240, sameCmdDataDir? 1, size = 4, data = word[0] = 0, 
setDataFromBlock:: PC = 4662047,  addr = 4047500, sameCmdDataDir? 1, size = 4, data = word[0] = 0, 
writeDataToBlock:: PC = 4662053,  addr = 4331250, sameCmdDataDir? 1, size = 8, data = word[0] = 703e80, 
setDataFromBlock:: PC = 4662136,  addr = 4047240, sameCmdDataDir? 1, size = 8, data = word[0] = 0, 
setDataFromBlock:: PC = 4662140,  addr = 4047250, sameCmdDataDir? 1, size = 8, data = word[0] = 0, 
writeDataToBlock:: PC = 4662113,  addr = 4331250, sameCmdDataDir? 1, size = 8, data = word[0] = 0, 
system.mem_ctrls::access() Cmd: ReadSharedReq, DataDir: 1, CmdDir: 1, Size: 64, addr: 4047300, PC: 4662126, time: 93279000
setDataFromBlock:: PC = 4662126,  addr = 4047300, sameCmdDataDir? 1, size = 64, data = word[0] = 0, word[1] = 0, word[2] = 0, word[3] = 0, word[4] = 0, word[5] = 703da0, word[6] = 2, word[7] = ffffffffffffffff, 
setDataFromBlock:: PC = 4662126,  addr = 4047350, sameCmdDataDir? 1, size = 8, data = word[0] = 703da0, 
setDataFromBlock:: PC = 4662047,  addr = 4047140, sameCmdDataDir? 1, size = 4, data = word[0] = ffffffff, 
writeDataToBlock:: PC = 4662053,  addr = 4331250, sameCmdDataDir? 1, size = 8, data = word[0] = 703da0, 
setDataFromBlock:: PC = 4662136,  addr = 4046700, sameCmdDataDir? 1, size = 8, data = word[0] = 7ffff7ffd000, 
setDataFromBlock:: PC = 4662140,  addr = 4046710, sameCmdDataDir? 1, size = 8, data = word[0] = 7ffff7ffd000, 
writeDataToBlock:: PC = 4662113,  addr = 4331250, sameCmdDataDir? 1, size = 8, data = word[0] = 0, 
setDataFromBlock:: PC = 4662126,  addr = 4047010, sameCmdDataDir? 1, size = 8, data = word[0] = 703cc0, 
setDataFromBlock:: PC = 4662047,  addr = 4046600, sameCmdDataDir? 1, size = 4, data = word[0] = 0, 
writeDataToBlock:: PC = 4662053,  addr = 4331250, sameCmdDataDir? 1, size = 8, data = word[0] = 703cc0, 
system.mem_ctrls::access() Cmd: ReadSharedReq, DataDir: 1, CmdDir: 1, Size: 64, addr: 4046300, PC: 4662136, time: 93307500
setDataFromBlock:: PC = 4662136,  addr = 4046300, sameCmdDataDir? 1, size = 64, data = word[0] = fbad2088, word[1] = 0, word[2] = 0, word[3] = 0, word[4] = 0, word[5] = 0, word[6] = 0, word[7] = 0, 
setDataFromBlock:: PC = 4662136,  addr = 4046340, sameCmdDataDir? 1, size = 8, data = word[0] = 0, 
setDataFromBlock:: PC = 4662140,  addr = 4046350, sameCmdDataDir? 1, size = 8, data = word[0] = 0, 
writeDataToBlock:: PC = 4662113,  addr = 4331250, sameCmdDataDir? 1, size = 8, data = word[0] = 0, 
system.mem_ctrls::access() Cmd: ReadSharedReq, DataDir: 1, CmdDir: 1, Size: 64, addr: 4046400, PC: 4662126, time: 93317000
setDataFromBlock:: PC = 4662126,  addr = 4046400, sameCmdDataDir? 1, size = 64, data = word[0] = 0, word[1] = 0, word[2] = 0, word[3] = 0, word[4] = 0, word[5] = 0, word[6] = 0, word[7] = ffffffffffffffff, 
setDataFromBlock:: PC = 4662126,  addr = 4046450, sameCmdDataDir? 1, size = 8, data = word[0] = 0, 
setDataFromBlock:: PC = 4662014,  addr = 4355130, sameCmdDataDir? 1, size = 8, data = word[0] = 0, 
setDataFromBlock:: PC = 4662015,  addr = 4355140, sameCmdDataDir? 1, size = 8, data = word[0] = 4d9e08, 
setDataFromBlock:: PC = 4662016,  addr = 4355150, sameCmdDataDir? 1, size = 8, data = word[0] = 0, 
setDataFromBlock:: PC = 4662018,  addr = 4355160, sameCmdDataDir? 1, size = 8, data = word[0] = 7fffffffeb00, 
setDataFromBlock:: PC = 4662020,  addr = 4355170, sameCmdDataDir? 1, size = 8, data = word[0] = 7fffffffeb86, 
setDataFromBlock:: PC = 4662022,  addr = 4355200, sameCmdDataDir? 1, size = 8, data = word[0] = 0, 
setDataFromBlock:: PC = 4662024,  addr = 4355210, sameCmdDataDir? 1, size = 8, data = word[0] = 47240f, 
setDataFromBlock:: PC = 4662287,  addr = 4047540, sameCmdDataDir? 1, size = 8, data = word[0] = 703e80, 
setDataFromBlock:: PC = 4662311,  addr = 4374160, sameCmdDataDir? 1, size = 8, data = word[0] = 71c860, 
setDataFromBlock:: PC = 4662320,  addr = 4047200, sameCmdDataDir? 1, size = 4, data = word[0] = fbad2086, 
writeDataToBlock:: PC = 4662464,  addr = 4047500, sameCmdDataDir? 1, size = 4, data = word[0] = ffffffff, 
setDataFromBlock:: PC = 4662474,  addr = 4047350, sameCmdDataDir? 1, size = 8, data = word[0] = 703da0, 
setDataFromBlock:: PC = 4662320,  addr = 4046640, sameCmdDataDir? 1, size = 4, data = word[0] = fbad2884, 
setDataFromBlock:: PC = 4662345,  addr = 4047140, sameCmdDataDir? 1, size = 4, data = word[0] = ffffffff, 
setDataFromBlock:: PC = 4662355,  addr = 4047050, sameCmdDataDir? 1, size = 8, data = word[0] = 71a2d0, 
setDataFromBlock:: PC = 4662362,  addr = 4331330, sameCmdDataDir? 1, size = 8, data = word[0] = 0, 
setDataFromBlock:: PC = 4662375,  addr = 4345310, sameCmdDataDir? 1, size = 4, data = word[0] = 0, 
setDataFromBlock:: PC = 4662390,  addr = 4331320, sameCmdDataDir? 1, size = 4, data = word[0] = 0, 
writeDataToBlock:: PC = 4662390,  addr = 4331320, sameCmdDataDir? 1, size = 4, data = word[0] = 1, 
setDataFromBlock:: PC = 4662397,  addr = 4047050, sameCmdDataDir? 1, size = 8, data = word[0] = 71a2d0, 
writeDataToBlock:: PC = 4662404,  addr = 4331330, sameCmdDataDir? 1, size = 8, data = word[0] = 71c860, 
writeDataToBlock:: PC = 4662408,  addr = 4331324, sameCmdDataDir? 1, size = 4, data = word[0] = 1, 
setDataFromBlock:: PC = 4662418,  addr = 4331260, sameCmdDataDir? 1, size = 1, data = word[0] = 0, 
setDataFromBlock:: PC = 4662427,  addr = 4046640, sameCmdDataDir? 1, size = 4, data = word[0] = fbad2884, 
setDataFromBlock:: PC = 4662611,  addr = 4046730, sameCmdDataDir? 1, size = 8, data = word[0] = 7ffff7ffd000, 
writeDataToBlock:: PC = 4662615,  addr = 4046640, sameCmdDataDir? 1, size = 4, data = word[0] = fbad2885, 
setDataFromBlock:: PC = 4662617,  addr = 4331270, sameCmdDataDir? 1, size = 8, data = word[0] = 0, 
writeDataToBlock:: PC = 4662624,  addr = 4047120, sameCmdDataDir? 1, size = 8, data = word[0] = 7ffff7ffd000, 
writeDataToBlock:: PC = 4662631,  addr = 4047110, sameCmdDataDir? 1, size = 8, data = word[0] = 0, 
setDataFromBlock:: PC = 4662638,  addr = 4046740, sameCmdDataDir? 1, size = 8, data = word[0] = 7ffff7fff000, 
writeDataToBlock:: PC = 4662642,  addr = 4331270, sameCmdDataDir? 1, size = 8, data = word[0] = 703da0, 
writeDataToBlock:: PC = 4662652,  addr = 4047130, sameCmdDataDir? 1, size = 8, data = word[0] = 2000, 
setDataFromBlock:: PC = 4662437,  addr = 4047170, sameCmdDataDir? 1, size = 8, data = word[0] = 4c56e0, 
setDataFromBlock:: PC = 4662451,  addr = 3053470, sameCmdDataDir? 1, size = 8, data = word[0] = 470360, 
writeDataToBlock:: PC = 4662451,  addr = 4355210, sameCmdDataDir? 1, size = 8, data = word[0] = 4724b6, 
writeDataToBlock:: PC = 4653920,  addr = 4355200, sameCmdDataDir? 1, size = 8, data = word[0] = 703da0, 
writeDataToBlock:: PC = 4653924,  addr = 4355170, sameCmdDataDir? 1, size = 8, data = word[0] = 470369, 
writeDataToBlock:: PC = 4664496,  addr = 4355140, sameCmdDataDir? 1, size = 8, data = word[0] = 703da0, 
writeDataToBlock:: PC = 4664501,  addr = 4355150, sameCmdDataDir? 1, size = 8, data = word[0] = 1, 
writeDataToBlock:: PC = 4664509,  addr = 4355160, sameCmdDataDir? 1, size = 8, data = word[0] = 71c860, 
setDataFromBlock:: PC = 4664518,  addr = 4047170, sameCmdDataDir? 1, size = 8, data = word[0] = 4c56e0, 
setDataFromBlock:: PC = 4664531,  addr = 3053500, sameCmdDataDir? 1, size = 8, data = word[0] = 4706e0, 
writeDataToBlock:: PC = 4664531,  addr = 4355130, sameCmdDataDir? 1, size = 8, data = word[0] = 472cd6, 
writeDataToBlock:: PC = 4654816,  addr = 4355120, sameCmdDataDir? 1, size = 8, data = word[0] = 703da0, 
setDataFromBlock:: PC = 4654817,  addr = 4046710, sameCmdDataDir? 1, size = 8, data = word[0] = 7ffff7ffd000, 
setDataFromBlock:: PC = 4654824,  addr = 4046700, sameCmdDataDir? 1, size = 8, data = word[0] = 7ffff7ffd000, 
setDataFromBlock:: PC = 4654833,  addr = 4046650, sameCmdDataDir? 1, size = 8, data = word[0] = 7ffff7ffd000, 
setDataFromBlock:: PC = 4654837,  addr = 4046660, sameCmdDataDir? 1, size = 8, data = word[0] = 7ffff7ffd000, 
writeDataToBlock:: PC = 4654843,  addr = 4047060, sameCmdDataDir? 1, size = 8, data = word[0] = ffffffffffffffff, 
setDataFromBlock:: PC = 4654856,  addr = 4355120, sameCmdDataDir? 1, size = 8, data = word[0] = 703da0, 
setDataFromBlock:: PC = 4654857,  addr = 4355130, sameCmdDataDir? 1, size = 8, data = word[0] = 472cd6, 
setDataFromBlock:: PC = 4664553,  addr = 4046640, sameCmdDataDir? 1, size = 4, data = word[0] = fbad2885, 
setDataFromBlock:: PC = 4664555,  addr = 4046730, sameCmdDataDir? 1, size = 8, data = word[0] = 7ffff7ffd000, 
writeDataToBlock:: PC = 4664572,  addr = 4046640, sameCmdDataDir? 1, size = 4, data = word[0] = fbad2887, 
setDataFromBlock:: PC = 4664584,  addr = 4046640, sameCmdDataDir? 1, size = 4, data = word[0] = fbad2887, 
writeDataToBlock:: PC = 4664584,  addr = 4046640, sameCmdDataDir? 1, size = 4, data = word[0] = fbad2887, 
writeDataToBlock:: PC = 4664587,  addr = 4046730, sameCmdDataDir? 1, size = 8, data = word[0] = 703e23, 
writeDataToBlock:: PC = 4664595,  addr = 4046740, sameCmdDataDir? 1, size = 8, data = word[0] = 703e24, 
writeDataToBlock:: PC = 4664599,  addr = 4046720, sameCmdDataDir? 1, size = 8, data = word[0] = 0, 
writeDataToBlock:: PC = 4664607,  addr = 4046710, sameCmdDataDir? 1, size = 8, data = word[0] = 0, 
writeDataToBlock:: PC = 4664615,  addr = 4046700, sameCmdDataDir? 1, size = 8, data = word[0] = 0, 
writeDataToBlock:: PC = 4664623,  addr = 4046660, sameCmdDataDir? 1, size = 8, data = word[0] = 0, 
writeDataToBlock:: PC = 4664631,  addr = 4046650, sameCmdDataDir? 1, size = 8, data = word[0] = 0, 
writeDataToBlock:: PC = 4664639,  addr = 4046670, sameCmdDataDir? 1, size = 8, data = word[0] = 0, 
setDataFromBlock:: PC = 4664650,  addr = 4355150, sameCmdDataDir? 1, size = 8, data = word[0] = 1, 
setDataFromBlock:: PC = 4664655,  addr = 4355140, sameCmdDataDir? 1, size = 8, data = word[0] = 703da0, 
setDataFromBlock:: PC = 4664659,  addr = 4355160, sameCmdDataDir? 1, size = 8, data = word[0] = 71c860, 
setDataFromBlock:: PC = 4664668,  addr = 4355170, sameCmdDataDir? 1, size = 8, data = word[0] = 470369, 
setDataFromBlock:: PC = 4653934,  addr = 4046730, sameCmdDataDir? 1, size = 8, data = word[0] = 703e23, 
writeDataToBlock:: PC = 4653938,  addr = 4046720, sameCmdDataDir? 1, size = 8, data = word[0] = 703e23, 
writeDataToBlock:: PC = 4653942,  addr = 4046710, sameCmdDataDir? 1, size = 8, data = word[0] = 703e23, 
writeDataToBlock:: PC = 4653946,  addr = 4046700, sameCmdDataDir? 1, size = 8, data = word[0] = 703e23, 
writeDataToBlock:: PC = 4653950,  addr = 4046670, sameCmdDataDir? 1, size = 8, data = word[0] = 703e23, 
writeDataToBlock:: PC = 4653954,  addr = 4046650, sameCmdDataDir? 1, size = 8, data = word[0] = 703e23, 
writeDataToBlock:: PC = 4653958,  addr = 4046660, sameCmdDataDir? 1, size = 8, data = word[0] = 703e23, 
setDataFromBlock:: PC = 4653965,  addr = 4355200, sameCmdDataDir? 1, size = 8, data = word[0] = 703da0, 
setDataFromBlock:: PC = 4653966,  addr = 4355210, sameCmdDataDir? 1, size = 8, data = word[0] = 4724b6, 
setDataFromBlock:: PC = 4662672,  addr = 4047050, sameCmdDataDir? 1, size = 8, data = word[0] = 71a2d0, 
setDataFromBlock:: PC = 4662679,  addr = 4331324, sameCmdDataDir? 1, size = 4, data = word[0] = 1, 
writeDataToBlock:: PC = 4662687,  addr = 4331324, sameCmdDataDir? 1, size = 4, data = word[0] = 0, 
writeDataToBlock:: PC = 4662696,  addr = 4331330, sameCmdDataDir? 1, size = 8, data = word[0] = 0, 
setDataFromBlock:: PC = 4662704,  addr = 4345310, sameCmdDataDir? 1, size = 4, data = word[0] = 0, 
setDataFromBlock:: PC = 4662724,  addr = 4331320, sameCmdDataDir? 1, size = 4, data = word[0] = 1, 
writeDataToBlock:: PC = 4662724,  addr = 4331320, sameCmdDataDir? 1, size = 4, data = word[0] = 0, 
writeDataToBlock:: PC = 4662464,  addr = 4047140, sameCmdDataDir? 1, size = 4, data = word[0] = ffffffff, 
setDataFromBlock:: PC = 4662474,  addr = 4047010, sameCmdDataDir? 1, size = 8, data = word[0] = 703cc0, 
setDataFromBlock:: PC = 4662320,  addr = 4046300, sameCmdDataDir? 1, size = 4, data = word[0] = fbad2088, 
writeDataToBlock:: PC = 4662464,  addr = 4046600, sameCmdDataDir? 1, size = 4, data = word[0] = ffffffff, 
setDataFromBlock:: PC = 4662474,  addr = 4046450, sameCmdDataDir? 1, size = 8, data = word[0] = 0, 
setDataFromBlock:: PC = 4662487,  addr = 4355220, sameCmdDataDir? 1, size = 8, data = word[0] = 0, 
setDataFromBlock:: PC = 4662488,  addr = 4355230, sameCmdDataDir? 1, size = 8, data = word[0] = 4d9e08, 
setDataFromBlock:: PC = 4662489,  addr = 4355240, sameCmdDataDir? 1, size = 8, data = word[0] = 0, 
setDataFromBlock:: PC = 4662494,  addr = 4355250, sameCmdDataDir? 1, size = 8, data = word[0] = 7fffffffeb00, 
setDataFromBlock:: PC = 4662496,  addr = 4355260, sameCmdDataDir? 1, size = 8, data = word[0] = 7fffffffeb86, 
setDataFromBlock:: PC = 4662498,  addr = 4355270, sameCmdDataDir? 1, size = 8, data = word[0] = 45f28b, 
writeDataToBlock:: PC = 4584090,  addr = 4355270, sameCmdDataDir? 1, size = 8, data = word[0] = 45f29f, 
Exiting @ tick 93531000 because target called exit()
