gem5 Simulator System.  http://gem5.org
gem5 is copyrighted software; use the --copyright option for details.

gem5 compiled Apr 24 2017 01:17:25
gem5 started Apr 24 2017 01:18:23
gem5 executing on shai.cse.psu.edu, pid 23757
command line: /home/mdl/mjl5868/GEM5/Mem2D/New_Version/2dmem_v0_1_addaddrbit/V0_1_AddAddrBit/gem5/build/X86/gem5.opt --redirect-stdout --stdout-file=build_test_Apr23_2017.gemout --redirect-stderr --stderr-file=build_test_Apr23_2017.gemerr --stats-file=build_test_Apr23_2017.stat /home/mdl/mjl5868/GEM5/Mem2D/New_Version/2dmem_v0_1_addaddrbit/V0_1_AddAddrBit/gem5/configs/example/se.py --output=build_test_Apr23_2017.appout --errout=build_test_Apr23_2017.apperr -c /home/mdl/mjl5868/GEM5/Mem2D/New_Version/2dmem_v0_1_addaddrbit/V0_1_AddAddrBit/Run_test_pbs/Vector_test/testscl-bin --caches --l2cache --cpu-type=atomic --MJL_row_width=8 --MJL_PC2DirFile=test.txt

Global frequency set at 1000000000000 ticks per second
system.cpu.dcache.tags::MJL_rowWidth = 8
system.cpu.dcache::MJL_rowWidth = 8
system.cpu.dcache::MJL_PC2DirFilname = test.txt
MJL_Error: Could not open test input file!
After reading the file
system.cpu.dtb_walker_cache.tags::MJL_rowWidth = 8
system.cpu.dtb_walker_cache::MJL_rowWidth = 8
system.cpu.dtb_walker_cache::MJL_PC2DirFilname = PC2Dir.txt
system.cpu.icache.tags::MJL_rowWidth = 8
system.cpu.icache::MJL_rowWidth = 8
system.cpu.icache::MJL_PC2DirFilname = PC2Dir.txt
system.cpu.itb_walker_cache.tags::MJL_rowWidth = 8
system.cpu.itb_walker_cache::MJL_rowWidth = 8
system.cpu.itb_walker_cache::MJL_PC2DirFilname = PC2Dir.txt
system.l2.tags::MJL_rowWidth = 8
system.l2::MJL_rowWidth = 8
system.l2::MJL_PC2DirFilname = PC2Dir.txt
**** REAL SIMULATION ****
info: Entering event queue @ 0.  Starting simulation...
system.mem_ctrls::access() Cmd: ReadSharedReq, DataDir: 2, CmdDir: 2, Size: 64, addr: 4350640, PC: 4194757, time: 1000
setDataFromBlock:: PC = 4194757,  addr = 4350640, sameCmdDataDir? 1, size = 64, data = word[0] = 0, word[1] = 0, word[2] = 0, word[3] = 0, word[4] = 0, word[5] = 0, word[6] = 1, word[7] = 7265565f77654e2f, 
setDataFromBlock:: PC = 4194757,  addr = 4356640, sameCmdDataDir? 1, size = 8, data = word[0] = 1, 
system.mem_ctrls::access() Cmd: ReadExReq, DataDir: 2, CmdDir: 2, Size: 64, addr: 4350630, PC: 4194765, time: 4500
setDataFromBlock:: PC = 4194765,  addr = 4350630, sameCmdDataDir? 1, size = 64, data = word[0] = 0, word[1] = 0, word[2] = 0, word[3] = 0, word[4] = 0, word[5] = 0, word[6] = 0, word[7] = 44326d654d2f354d, 
writeDataToBlock:: PC = 4194765,  addr = 4356630, sameCmdDataDir? 1, size = 8, data = word[0] = 0, 
system.mem_ctrls::access() Cmd: ReadExReq, DataDir: 2, CmdDir: 2, Size: 64, addr: 4350620, PC: 4194766, time: 5500
setDataFromBlock:: PC = 4194766,  addr = 4350620, sameCmdDataDir? 1, size = 64, data = word[0] = 0, word[1] = 0, word[2] = 0, word[3] = 0, word[4] = 0, word[5] = 0, word[6] = 0, word[7] = 45472f383638356c, 
writeDataToBlock:: PC = 4194766,  addr = 4356620, sameCmdDataDir? 1, size = 8, data = word[0] = 7fffffffed98, 
system.mem_ctrls::access() Cmd: ReadExReq, DataDir: 2, CmdDir: 2, Size: 64, addr: 4350610, PC: 4194788, time: 11000
setDataFromBlock:: PC = 4194788,  addr = 4350610, sameCmdDataDir? 1, size = 64, data = word[0] = 0, word[1] = 0, word[2] = 0, word[3] = 0, word[4] = 0, word[5] = 0, word[6] = 0, word[7] = 6a6d2f6c646d2f65, 
writeDataToBlock:: PC = 4194788,  addr = 4356610, sameCmdDataDir? 1, size = 8, data = word[0] = 4001e9, 
system.mem_ctrls::access() Cmd: ReadExReq, DataDir: 2, CmdDir: 2, Size: 64, addr: 4350600, PC: 4546768, time: 12500
setDataFromBlock:: PC = 4546768,  addr = 4350600, sameCmdDataDir? 1, size = 64, data = word[0] = 0, word[1] = 0, word[2] = 0, word[3] = 0, word[4] = 0, word[5] = 0, word[6] = 0, word[7] = 6d6f682f006e6962, 
writeDataToBlock:: PC = 4546768,  addr = 4356600, sameCmdDataDir? 1, size = 8, data = word[0] = 0, 
system.mem_ctrls::access() Cmd: ReadExReq, DataDir: 2, CmdDir: 2, Size: 64, addr: 4350570, PC: 4546775, time: 14500
setDataFromBlock:: PC = 4546775,  addr = 4350570, sameCmdDataDir? 1, size = 64, data = word[0] = 0, word[1] = 0, word[2] = 0, word[3] = 0, word[4] = 0, word[5] = 0, word[6] = 0, word[7] = 2d6c637374736574, 
writeDataToBlock:: PC = 4546775,  addr = 4356570, sameCmdDataDir? 1, size = 8, data = word[0] = 0, 
system.mem_ctrls::access() Cmd: ReadExReq, DataDir: 2, CmdDir: 2, Size: 64, addr: 4350560, PC: 4546777, time: 15500
setDataFromBlock:: PC = 4546777,  addr = 4350560, sameCmdDataDir? 1, size = 64, data = word[0] = 0, word[1] = 0, word[2] = 0, word[3] = 0, word[4] = 0, word[5] = 0, word[6] = 0, word[7] = 2f747365745f726f, 
writeDataToBlock:: PC = 4546777,  addr = 4356560, sameCmdDataDir? 1, size = 8, data = word[0] = 0, 
system.mem_ctrls::access() Cmd: ReadExReq, DataDir: 2, CmdDir: 2, Size: 64, addr: 4350550, PC: 4546779, time: 16500
setDataFromBlock:: PC = 4546779,  addr = 4350550, sameCmdDataDir? 1, size = 64, data = word[0] = 0, word[1] = 0, word[2] = 0, word[3] = 0, word[4] = 0, word[5] = 0, word[6] = 0, word[7] = 746365562f736270, 
writeDataToBlock:: PC = 4546779,  addr = 4356550, sameCmdDataDir? 1, size = 8, data = word[0] = 0, 
system.mem_ctrls::access() Cmd: ReadExReq, DataDir: 2, CmdDir: 2, Size: 64, addr: 4350540, PC: 4546784, time: 18000
setDataFromBlock:: PC = 4546784,  addr = 4350540, sameCmdDataDir? 1, size = 64, data = word[0] = 0, word[1] = 0, word[2] = 0, word[3] = 0, word[4] = 0, word[5] = 0, word[6] = 0, word[7] = 5f747365745f6e75, 
writeDataToBlock:: PC = 4546784,  addr = 4356540, sameCmdDataDir? 1, size = 8, data = word[0] = 0, 
system.mem_ctrls::access() Cmd: ReadExReq, DataDir: 2, CmdDir: 2, Size: 64, addr: 4350530, PC: 4546788, time: 19500
setDataFromBlock:: PC = 4546788,  addr = 4350530, sameCmdDataDir? 1, size = 64, data = word[0] = 0, word[1] = 0, word[2] = 0, word[3] = 0, word[4] = 0, word[5] = 0, word[6] = 0, word[7] = 522f746942726464, 
writeDataToBlock:: PC = 4546788,  addr = 4356530, sameCmdDataDir? 1, size = 8, data = word[0] = 0, 
system.mem_ctrls::access() Cmd: ReadExReq, DataDir: 2, CmdDir: 2, Size: 64, addr: 4350370, PC: 4546802, time: 23000
setDataFromBlock:: PC = 4546802,  addr = 4350370, sameCmdDataDir? 1, size = 64, data = word[0] = 0, word[1] = 0, word[2] = 0, word[3] = 0, word[4] = 0, word[5] = 0, word[6] = 0, word[7] = 34365f36387800, 
writeDataToBlock:: PC = 4546802,  addr = 4355370, sameCmdDataDir? 1, size = 8, data = word[0] = 4003b2, 
system.mem_ctrls::access() Cmd: ReadExReq, DataDir: 2, CmdDir: 2, Size: 64, addr: 4350350, PC: 4546807, time: 24000
setDataFromBlock:: PC = 4546807,  addr = 4350350, sameCmdDataDir? 1, size = 64, data = word[0] = 0, word[1] = 0, word[2] = 0, word[3] = 0, word[4] = 0, word[5] = 0, word[6] = 0, word[7] = 0, 
writeDataToBlock:: PC = 4546807,  addr = 4355354, sameCmdDataDir? 1, size = 4, data = word[0] = 1, 
system.mem_ctrls::access() Cmd: ReadExReq, DataDir: 2, CmdDir: 2, Size: 64, addr: 4350360, PC: 4546811, time: 24500
setDataFromBlock:: PC = 4546811,  addr = 4350360, sameCmdDataDir? 1, size = 64, data = word[0] = 0, word[1] = 0, word[2] = 0, word[3] = 0, word[4] = 0, word[5] = 0, word[6] = 0, word[7] = 0, 
writeDataToBlock:: PC = 4546811,  addr = 4355360, sameCmdDataDir? 1, size = 8, data = word[0] = 7fffffffeda8, 
system.mem_ctrls::access() Cmd: ReadExReq, DataDir: 2, CmdDir: 2, Size: 64, addr: 4050150, PC: 4546830, time: 27500
setDataFromBlock:: PC = 4546830,  addr = 4050150, sameCmdDataDir? 1, size = 64, data = word[0] = 0, word[1] = 0, word[2] = 1, word[3] = 0, word[4] = 0, word[5] = 0, word[6] = 0, word[7] = 0, 
writeDataToBlock:: PC = 4546830,  addr = 4052150, sameCmdDataDir? 1, size = 4, data = word[0] = 0, 
setDataFromBlock:: PC = 4546836,  addr = 4355354, sameCmdDataDir? 1, size = 4, data = word[0] = 1, 
setDataFromBlock:: PC = 4546841,  addr = 4355360, sameCmdDataDir? 1, size = 8, data = word[0] = 7fffffffeda8, 
setDataFromBlock:: PC = 4546851,  addr = 4356620, sameCmdDataDir? 1, size = 8, data = word[0] = 7fffffffed98, 
system.mem_ctrls::access() Cmd: ReadExReq, DataDir: 2, CmdDir: 2, Size: 64, addr: 4330310, PC: 4546859, time: 33000
setDataFromBlock:: PC = 4546859,  addr = 4330310, sameCmdDataDir? 1, size = 64, data = word[0] = 0, word[1] = 0, word[2] = 0, word[3] = 0, word[4] = 0, word[5] = 0, word[6] = 0, word[7] = 0, 
writeDataToBlock:: PC = 4546859,  addr = 4336310, sameCmdDataDir? 1, size = 8, data = word[0] = 7fffffffedb8, 
system.mem_ctrls::access() Cmd: ReadExReq, DataDir: 2, CmdDir: 2, Size: 64, addr: 4040500, PC: 4546866, time: 34500
setDataFromBlock:: PC = 4546866,  addr = 4040500, sameCmdDataDir? 1, size = 64, data = word[0] = 0, word[1] = 7004c0, word[2] = 700be0, word[3] = 6ffde0, word[4] = 703aa0, word[5] = 4c0b44, word[6] = 0, word[7] = 0, 
writeDataToBlock:: PC = 4546866,  addr = 4040500, sameCmdDataDir? 1, size = 8, data = word[0] = 7fffffffed98, 
system.mem_ctrls::access() Cmd: ReadSharedReq, DataDir: 2, CmdDir: 2, Size: 64, addr: 4350670, PC: 4546880, time: 35500
setDataFromBlock:: PC = 4546880,  addr = 4350670, sameCmdDataDir? 1, size = 64, data = word[0] = 0, word[1] = 0, word[2] = 0, word[3] = 0, word[4] = 0, word[5] = 0, word[6] = 0, word[7] = 6272646461646461, 
setDataFromBlock:: PC = 4546880,  addr = 4356670, sameCmdDataDir? 1, size = 8, data = word[0] = 0, 
system.mem_ctrls::access() Cmd: ReadExReq, DataDir: 2, CmdDir: 2, Size: 64, addr: 4350330, PC: 4546892, time: 41000
setDataFromBlock:: PC = 4546892,  addr = 4350330, sameCmdDataDir? 1, size = 64, data = word[0] = 0, word[1] = 0, word[2] = 0, word[3] = 0, word[4] = 0, word[5] = 0, word[6] = 0, word[7] = 7fffffffef09, 
writeDataToBlock:: PC = 4546892,  addr = 4355330, sameCmdDataDir? 1, size = 8, data = word[0] = 456151, 
system.mem_ctrls::access() Cmd: ReadExReq, DataDir: 2, CmdDir: 2, Size: 64, addr: 4350320, PC: 4764992, time: 42500
setDataFromBlock:: PC = 4764992,  addr = 4350320, sameCmdDataDir? 1, size = 64, data = word[0] = 0, word[1] = 0, word[2] = 0, word[3] = 0, word[4] = 0, word[5] = 0, word[6] = 0, word[7] = f, 
writeDataToBlock:: PC = 4764992,  addr = 4355320, sameCmdDataDir? 1, size = 8, data = word[0] = 0, 
system.mem_ctrls::access() Cmd: ReadSharedReq, DataDir: 2, CmdDir: 2, Size: 64, addr: 4350700, PC: 4764994, time: 43500
setDataFromBlock:: PC = 4764994,  addr = 4350700, sameCmdDataDir? 1, size = 64, data = word[0] = 0, word[1] = 0, word[2] = 0, word[3] = 0, word[4] = 0, word[5] = 0, word[6] = 21, word[7] = 5f315f30562f7469, 
setDataFromBlock:: PC = 4764994,  addr = 4356700, sameCmdDataDir? 1, size = 8, data = word[0] = 21, 
system.mem_ctrls::access() Cmd: ReadExReq, DataDir: 2, CmdDir: 2, Size: 64, addr: 4350310, PC: 4764997, time: 44000
setDataFromBlock:: PC = 4764997,  addr = 4350310, sameCmdDataDir? 1, size = 64, data = word[0] = 0, word[1] = 0, word[2] = 0, word[3] = 0, word[4] = 0, word[5] = 0, word[6] = 0, word[7] = 7fffffffeda8, 
writeDataToBlock:: PC = 4764997,  addr = 4355310, sameCmdDataDir? 1, size = 8, data = word[0] = 0, 
system.mem_ctrls::access() Cmd: ReadExReq, DataDir: 2, CmdDir: 2, Size: 64, addr: 4350300, PC: 4765002, time: 46000
setDataFromBlock:: PC = 4765002,  addr = 4350300, sameCmdDataDir? 1, size = 64, data = word[0] = 0, word[1] = 0, word[2] = 0, word[3] = 0, word[4] = 0, word[5] = 0, word[6] = 0, word[7] = 1f, 
writeDataToBlock:: PC = 4765002,  addr = 4355300, sameCmdDataDir? 1, size = 8, data = word[0] = 456aa0, 
system.mem_ctrls::access() Cmd: ReadExReq, DataDir: 2, CmdDir: 2, Size: 64, addr: 4350270, PC: 4765003, time: 47000
setDataFromBlock:: PC = 4765003,  addr = 4350270, sameCmdDataDir? 1, size = 64, data = word[0] = 0, word[1] = 0, word[2] = 0, word[3] = 0, word[4] = 0, word[5] = 0, word[6] = 0, word[7] = 7fffffffeef9, 
writeDataToBlock:: PC = 4765003,  addr = 4355270, sameCmdDataDir? 1, size = 8, data = word[0] = 456ae0, 
system.mem_ctrls::access() Cmd: ReadSharedReq, DataDir: 2, CmdDir: 2, Size: 64, addr: 4340360, PC: 4765010, time: 51000
setDataFromBlock:: PC = 4765010,  addr = 4340360, sameCmdDataDir? 1, size = 64, data = word[0] = 0, word[1] = 0, word[2] = 0, word[3] = 0, word[4] = 0, word[5] = 0, word[6] = 0, word[7] = 0, 
setDataFromBlock:: PC = 4765010,  addr = 4345360, sameCmdDataDir? 1, size = 8, data = word[0] = 0, 
system.mem_ctrls::access() Cmd: ReadSharedReq, DataDir: 2, CmdDir: 2, Size: 64, addr: 4340660, PC: 4765017, time: 52000
setDataFromBlock:: PC = 4765017,  addr = 4340660, sameCmdDataDir? 1, size = 64, data = word[0] = 0, word[1] = 0, word[2] = 0, word[3] = 0, word[4] = 0, word[5] = 0, word[6] = 0, word[7] = 0, 
setDataFromBlock:: PC = 4765017,  addr = 4345660, sameCmdDataDir? 1, size = 4, data = word[0] = 0, 
system.mem_ctrls::access() Cmd: ReadSharedReq, DataDir: 2, CmdDir: 2, Size: 64, addr: 4340350, PC: 4765026, time: 54000
setDataFromBlock:: PC = 4765026,  addr = 4340350, sameCmdDataDir? 1, size = 64, data = word[0] = 0, word[1] = 0, word[2] = 0, word[3] = 0, word[4] = 0, word[5] = 0, word[6] = 0, word[7] = 0, 
setDataFromBlock:: PC = 4765026,  addr = 4345350, sameCmdDataDir? 1, size = 8, data = word[0] = 0, 
system.mem_ctrls::access() Cmd: ReadSharedReq, DataDir: 2, CmdDir: 2, Size: 64, addr: 4340570, PC: 4765033, time: 55000
setDataFromBlock:: PC = 4765033,  addr = 4340570, sameCmdDataDir? 1, size = 64, data = word[0] = 0, word[1] = 0, word[2] = 0, word[3] = 0, word[4] = 0, word[5] = 0, word[6] = 0, word[7] = 0, 
setDataFromBlock:: PC = 4765033,  addr = 4345570, sameCmdDataDir? 1, size = 8, data = word[0] = 0, 
system.mem_ctrls::access() Cmd: ReadSharedReq, DataDir: 2, CmdDir: 2, Size: 64, addr: 4340260, PC: 4765042, time: 57000
setDataFromBlock:: PC = 4765042,  addr = 4340260, sameCmdDataDir? 1, size = 64, data = word[0] = 0, word[1] = 0, word[2] = 0, word[3] = 0, word[4] = 0, word[5] = 0, word[6] = 0, word[7] = 0, 
setDataFromBlock:: PC = 4765042,  addr = 4343260, sameCmdDataDir? 1, size = 8, data = word[0] = 0, 
system.mem_ctrls::access() Cmd: ReadSharedReq, DataDir: 2, CmdDir: 2, Size: 64, addr: 4340650, PC: 4765049, time: 58000
setDataFromBlock:: PC = 4765049,  addr = 4340650, sameCmdDataDir? 1, size = 64, data = word[0] = 0, word[1] = 0, word[2] = 0, word[3] = 0, word[4] = 0, word[5] = 0, word[6] = 0, word[7] = 0, 
setDataFromBlock:: PC = 4765049,  addr = 4345650, sameCmdDataDir? 1, size = 8, data = word[0] = 0, 
system.mem_ctrls::access() Cmd: ReadSharedReq, DataDir: 2, CmdDir: 2, Size: 64, addr: 4040510, PC: 4765058, time: 60000
setDataFromBlock:: PC = 4765058,  addr = 4040510, sameCmdDataDir? 1, size = 64, data = word[0] = 1, word[1] = 6ff960, word[2] = 700860, word[3] = 700de0, word[4] = 7177c8, word[5] = 4c0b48, word[6] = 71a2c0, word[7] = 0, 
setDataFromBlock:: PC = 4765058,  addr = 4040510, sameCmdDataDir? 1, size = 4, data = word[0] = 1, 
system.mem_ctrls::access() Cmd: ReadSharedReq, DataDir: 2, CmdDir: 2, Size: 64, addr: 4340760, PC: 4765065, time: 61000
setDataFromBlock:: PC = 4765065,  addr = 4340760, sameCmdDataDir? 1, size = 64, data = word[0] = 0, word[1] = 0, word[2] = 0, word[3] = 0, word[4] = 0, word[5] = 0, word[6] = 0, word[7] = 0, 
setDataFromBlock:: PC = 4765065,  addr = 4345760, sameCmdDataDir? 1, size = 4, data = word[0] = 0, 
system.mem_ctrls::access() Cmd: ReadSharedReq, DataDir: 2, CmdDir: 2, Size: 64, addr: 3100060, PC: 4765082, time: 65500
setDataFromBlock:: PC = 4765082,  addr = 3100060, sameCmdDataDir? 1, size = 64, data = word[0] = 487c30, word[1] = 487bc8, word[2] = 487abc, word[3] = 48b628, word[4] = 534355004c414e52, word[5] = 2f36343630312d4f, word[6] = 2f2f383639312d34, word[7] = 0, 
setDataFromBlock:: PC = 4765082,  addr = 3103060, sameCmdDataDir? 1, size = 8, data = word[0] = 48b628, 
system.mem_ctrls::access() Cmd: ReadSharedReq, DataDir: 2, CmdDir: 2, Size: 64, addr: 4350710, PC: 4765224, time: 66500
setDataFromBlock:: PC = 4765224,  addr = 4350710, sameCmdDataDir? 1, size = 64, data = word[0] = 0, word[1] = 0, word[2] = 0, word[3] = 0, word[4] = 0, word[5] = 0, word[6] = ffffffffff600000, word[7] = 4272646441646441, 
setDataFromBlock:: PC = 4765224,  addr = 4356710, sameCmdDataDir? 1, size = 8, data = word[0] = ffffffffff600000, 
system.mem_ctrls::access() Cmd: ReadSharedReq, DataDir: 2, CmdDir: 2, Size: 64, addr: 4350720, PC: 4765232, time: 68000
setDataFromBlock:: PC = 4765232,  addr = 4350720, sameCmdDataDir? 1, size = 64, data = word[0] = 0, word[1] = 0, word[2] = 0, word[3] = 0, word[4] = 0, word[5] = 0, word[6] = 10, word[7] = 745f6e75522f7469, 
setDataFromBlock:: PC = 4765232,  addr = 4356720, sameCmdDataDir? 1, size = 8, data = word[0] = 10, 
system.mem_ctrls::access() Cmd: ReadSharedReq, DataDir: 2, CmdDir: 2, Size: 64, addr: 3100650, PC: 4765082, time: 75000
setDataFromBlock:: PC = 4765082,  addr = 3100650, sameCmdDataDir? 1, size = 64, data = word[0] = 487bc8, word[1] = 487abc, word[2] = 48b688, word[3] = 5f454c49464f5250, word[4] = 2f34534355534300, word[5] = 534e41002f2f342e, word[6] = 493880, word[7] = 0, 
setDataFromBlock:: PC = 4765082,  addr = 3102650, sameCmdDataDir? 1, size = 8, data = word[0] = 48b688, 
system.mem_ctrls::access() Cmd: ReadSharedReq, DataDir: 2, CmdDir: 2, Size: 64, addr: 4350730, PC: 4765320, time: 76000
setDataFromBlock:: PC = 4765320,  addr = 4350730, sameCmdDataDir? 1, size = 64, data = word[0] = 0, word[1] = 0, word[2] = 0, word[3] = 0, word[4] = 0, word[5] = 0, word[6] = 78bfbff, word[7] = 2f7362705f747365, 
setDataFromBlock:: PC = 4765320,  addr = 4356730, sameCmdDataDir? 1, size = 8, data = word[0] = 78bfbff, 
system.mem_ctrls::access() Cmd: ReadSharedReq, DataDir: 2, CmdDir: 2, Size: 64, addr: 4350740, PC: 4765328, time: 77500
setDataFromBlock:: PC = 4765328,  addr = 4350740, sameCmdDataDir? 1, size = 64, data = word[0] = 0, word[1] = 0, word[2] = 0, word[3] = 0, word[4] = 0, word[5] = 0, word[6] = 6, word[7] = 745f726f74636556, 
setDataFromBlock:: PC = 4765328,  addr = 4356740, sameCmdDataDir? 1, size = 8, data = word[0] = 6, 
system.mem_ctrls::access() Cmd: ReadSharedReq, DataDir: 2, CmdDir: 2, Size: 64, addr: 3100530, PC: 4765082, time: 84500
setDataFromBlock:: PC = 4765082,  addr = 3100530, sameCmdDataDir? 1, size = 64, data = word[0] = 487bc8, word[1] = 487abc, word[2] = 48b5a8, word[3] = 5a5400524944504d, word[4] = 0, word[5] = 552f36343630312d, word[6] = 0, word[7] = 6f63670065686361, 
setDataFromBlock:: PC = 4765082,  addr = 3102530, sameCmdDataDir? 1, size = 8, data = word[0] = 48b5a8, 
system.mem_ctrls::access() Cmd: ReadSharedReq, DataDir: 2, CmdDir: 2, Size: 64, addr: 4350750, PC: 4765096, time: 85500
setDataFromBlock:: PC = 4765096,  addr = 4350750, sameCmdDataDir? 1, size = 64, data = word[0] = 0, word[1] = 0, word[2] = 0, word[3] = 0, word[4] = 0, word[5] = 0, word[6] = 1000, word[7] = 747365742f747365, 
setDataFromBlock:: PC = 4765096,  addr = 4356750, sameCmdDataDir? 1, size = 8, data = word[0] = 1000, 
system.mem_ctrls::access() Cmd: ReadSharedReq, DataDir: 2, CmdDir: 2, Size: 64, addr: 4350760, PC: 4765108, time: 87500
setDataFromBlock:: PC = 4765108,  addr = 4350760, sameCmdDataDir? 1, size = 64, data = word[0] = 0, word[1] = 0, word[2] = 0, word[3] = 0, word[4] = 0, word[5] = 0, word[6] = 11, word[7] = 6e69622d6c6373, 
setDataFromBlock:: PC = 4765108,  addr = 4356760, sameCmdDataDir? 1, size = 8, data = word[0] = 11, 
system.mem_ctrls::access() Cmd: ReadSharedReq, DataDir: 2, CmdDir: 2, Size: 64, addr: 3100660, PC: 4765082, time: 94500
setDataFromBlock:: PC = 4765082,  addr = 3100660, sameCmdDataDir? 1, size = 64, data = word[0] = 487bc8, word[1] = 487abc, word[2] = 48b668, word[3] = 2f0054555054554f, word[4] = 30312d4f5349002f, word[5] = 312d342e33585f49, word[6] = 0, word[7] = 0, 
setDataFromBlock:: PC = 4765082,  addr = 3102660, sameCmdDataDir? 1, size = 8, data = word[0] = 48b668, 
system.mem_ctrls::access() Cmd: ReadSharedReq, DataDir: 2, CmdDir: 2, Size: 64, addr: 4350770, PC: 4765288, time: 95500
setDataFromBlock:: PC = 4765288,  addr = 4350770, sameCmdDataDir? 1, size = 64, data = word[0] = 0, word[1] = 0, word[2] = 0, word[3] = 0, word[4] = 0, word[5] = 0, word[6] = 64, word[7] = 0, 
setDataFromBlock:: PC = 4765288,  addr = 4356770, sameCmdDataDir? 1, size = 4, data = word[0] = 64, 
system.mem_ctrls::access() Cmd: ReadSharedReq, DataDir: 2, CmdDir: 2, Size: 64, addr: 4350000, PC: 4765296, time: 97000
setDataFromBlock:: PC = 4765296,  addr = 4350000, sameCmdDataDir? 1, size = 64, data = word[0] = 0, word[1] = 0, word[2] = 0, word[3] = 0, word[4] = 0, word[5] = 0, word[6] = 0, word[7] = 3, 
setDataFromBlock:: PC = 4765296,  addr = 4357000, sameCmdDataDir? 1, size = 8, data = word[0] = 3, 
system.mem_ctrls::access() Cmd: ReadSharedReq, DataDir: 2, CmdDir: 2, Size: 64, addr: 3100500, PC: 4765082, time: 104000
setDataFromBlock:: PC = 4765082,  addr = 3100500, sameCmdDataDir? 1, size = 64, data = word[0] = 487ae0, word[1] = 487d49, word[2] = 48b748, word[3] = 4f435f54534f485f, word[4] = 0, word[5] = 4f002f325343552f, word[6] = 2f2f474942, word[7] = 766e6f63672f3436, 
setDataFromBlock:: PC = 4765082,  addr = 3102500, sameCmdDataDir? 1, size = 8, data = word[0] = 48b748, 
system.mem_ctrls::access() Cmd: ReadSharedReq, DataDir: 2, CmdDir: 2, Size: 64, addr: 4350010, PC: 4765512, time: 105000
setDataFromBlock:: PC = 4765512,  addr = 4350010, sameCmdDataDir? 1, size = 64, data = word[0] = 0, word[1] = 0, word[2] = 0, word[3] = 0, word[4] = 0, word[5] = 0, word[6] = 0, word[7] = 400040, 
setDataFromBlock:: PC = 4765512,  addr = 4357010, sameCmdDataDir? 1, size = 8, data = word[0] = 400040, 
system.mem_ctrls::access() Cmd: ReadSharedReq, DataDir: 2, CmdDir: 2, Size: 64, addr: 4350020, PC: 4765520, time: 106500
setDataFromBlock:: PC = 4765520,  addr = 4350020, sameCmdDataDir? 1, size = 64, data = word[0] = 0, word[1] = 0, word[2] = 0, word[3] = 0, word[4] = 0, word[5] = 0, word[6] = 0, word[7] = 4, 
setDataFromBlock:: PC = 4765520,  addr = 4357020, sameCmdDataDir? 1, size = 8, data = word[0] = 4, 
system.mem_ctrls::access() Cmd: ReadSharedReq, DataDir: 2, CmdDir: 2, Size: 64, addr: 3100510, PC: 4765082, time: 113500
setDataFromBlock:: PC = 4765082,  addr = 3100510, sameCmdDataDir? 1, size = 64, data = word[0] = 487bc8, word[1] = 487d49, word[2] = 48b5b0, word[3] = 4f5f53455200464e, word[4] = 0, word[5] = 3130313030304653, word[6] = 0, word[7] = 6d2d766e6f63672f, 
setDataFromBlock:: PC = 4765082,  addr = 3102510, sameCmdDataDir? 1, size = 8, data = word[0] = 48b5b0, 
system.mem_ctrls::access() Cmd: ReadSharedReq, DataDir: 2, CmdDir: 2, Size: 64, addr: 4350040, PC: 4765108, time: 115500
setDataFromBlock:: PC = 4765108,  addr = 4350040, sameCmdDataDir? 1, size = 64, data = word[0] = 0, word[1] = 0, word[2] = 0, word[3] = 0, word[4] = 0, word[5] = 0, word[6] = 0, word[7] = 5, 
setDataFromBlock:: PC = 4765108,  addr = 4357040, sameCmdDataDir? 1, size = 8, data = word[0] = 5, 
system.mem_ctrls::access() Cmd: ReadSharedReq, DataDir: 2, CmdDir: 2, Size: 64, addr: 3100520, PC: 4765082, time: 122500
setDataFromBlock:: PC = 4765082,  addr = 3100520, sameCmdDataDir? 1, size = 64, data = word[0] = 487bc8, word[1] = 487abc, word[2] = 48b728, word[3] = 5400534e4f495450, word[4] = 0, word[5] = 4f5349002f2f3030, word[6] = 0, word[7] = 632e73656c75646f, 
setDataFromBlock:: PC = 4765082,  addr = 3102520, sameCmdDataDir? 1, size = 8, data = word[0] = 48b728, 
system.mem_ctrls::access() Cmd: ReadSharedReq, DataDir: 2, CmdDir: 2, Size: 64, addr: 4350050, PC: 4765480, time: 123500
setDataFromBlock:: PC = 4765480,  addr = 4350050, sameCmdDataDir? 1, size = 64, data = word[0] = 0, word[1] = 0, word[2] = 0, word[3] = 0, word[4] = 0, word[5] = 0, word[6] = 0, word[7] = 5, 
setDataFromBlock:: PC = 4765480,  addr = 4357050, sameCmdDataDir? 1, size = 8, data = word[0] = 5, 
system.mem_ctrls::access() Cmd: ReadSharedReq, DataDir: 2, CmdDir: 2, Size: 64, addr: 4350060, PC: 4765488, time: 125000
setDataFromBlock:: PC = 4765488,  addr = 4350060, sameCmdDataDir? 1, size = 64, data = word[0] = 0, word[1] = 0, word[2] = 0, word[3] = 0, word[4] = 0, word[5] = 0, word[6] = 0, word[7] = 7, 
setDataFromBlock:: PC = 4765488,  addr = 4357060, sameCmdDataDir? 1, size = 8, data = word[0] = 7, 
system.mem_ctrls::access() Cmd: ReadSharedReq, DataDir: 2, CmdDir: 2, Size: 64, addr: 3100540, PC: 4765082, time: 132000
setDataFromBlock:: PC = 4765082,  addr = 3100540, sameCmdDataDir? 1, size = 64, data = word[0] = 487ae0, word[1] = 487abc, word[2] = 48b5b0, word[3] = 5f444c0000524944, word[4] = 49002f2f34534355, word[5] = 46534f002f325343, word[6] = 4c8815, word[7] = 766e6f636700766e, 
setDataFromBlock:: PC = 4765082,  addr = 3102540, sameCmdDataDir? 1, size = 8, data = word[0] = 48b5b0, 
system.mem_ctrls::access() Cmd: ReadSharedReq, DataDir: 2, CmdDir: 2, Size: 64, addr: 4350100, PC: 4765108, time: 134000
setDataFromBlock:: PC = 4765108,  addr = 4350100, sameCmdDataDir? 1, size = 64, data = word[0] = 0, word[1] = 0, word[2] = 0, word[3] = 0, word[4] = 0, word[5] = 0, word[6] = 0, word[7] = 8, 
setDataFromBlock:: PC = 4765108,  addr = 4357100, sameCmdDataDir? 1, size = 8, data = word[0] = 8, 
system.mem_ctrls::access() Cmd: ReadSharedReq, DataDir: 2, CmdDir: 2, Size: 64, addr: 3100550, PC: 4765082, time: 141000
setDataFromBlock:: PC = 4765082,  addr = 3100550, sameCmdDataDir? 1, size = 64, data = word[0] = 487bc8, word[1] = 487abc, word[2] = 48b5b0, word[3] = 5f444c004e524157, word[4] = 36343630312d4f53, word[5] = 3130313031303030, word[6] = 4934d0, word[7] = 63670074696e695f, 
setDataFromBlock:: PC = 4765082,  addr = 3102550, sameCmdDataDir? 1, size = 8, data = word[0] = 48b5b0, 
system.mem_ctrls::access() Cmd: ReadSharedReq, DataDir: 2, CmdDir: 2, Size: 64, addr: 4350120, PC: 4765108, time: 143000
setDataFromBlock:: PC = 4765108,  addr = 4350120, sameCmdDataDir? 1, size = 64, data = word[0] = 0, word[1] = 0, word[2] = 0, word[3] = 0, word[4] = 0, word[5] = 0, word[6] = 0, word[7] = 9, 
setDataFromBlock:: PC = 4765108,  addr = 4357120, sameCmdDataDir? 1, size = 8, data = word[0] = 9, 
system.mem_ctrls::access() Cmd: ReadSharedReq, DataDir: 2, CmdDir: 2, Size: 64, addr: 3100560, PC: 4765082, time: 150000
setDataFromBlock:: PC = 4765082,  addr = 3100560, sameCmdDataDir? 1, size = 64, data = word[0] = 487bc8, word[1] = 487abc, word[2] = 48b5b0, word[3] = 5f5952415242494c, word[4] = 55002f345343552f, word[5] = 312d4f5349002f2f, word[6] = 0, word[7] = 646e655f766e6f, 
setDataFromBlock:: PC = 4765082,  addr = 3102560, sameCmdDataDir? 1, size = 8, data = word[0] = 48b5b0, 
system.mem_ctrls::access() Cmd: ReadSharedReq, DataDir: 2, CmdDir: 2, Size: 64, addr: 4350140, PC: 4765108, time: 152000
setDataFromBlock:: PC = 4765108,  addr = 4350140, sameCmdDataDir? 1, size = 64, data = word[0] = 0, word[1] = 0, word[2] = 0, word[3] = 0, word[4] = 0, word[5] = 0, word[6] = 0, word[7] = b, 
setDataFromBlock:: PC = 4765108,  addr = 4357140, sameCmdDataDir? 1, size = 8, data = word[0] = b, 
system.mem_ctrls::access() Cmd: ReadSharedReq, DataDir: 2, CmdDir: 2, Size: 64, addr: 3100600, PC: 4765082, time: 159000
setDataFromBlock:: PC = 4765082,  addr = 3100600, sameCmdDataDir? 1, size = 64, data = word[0] = 487bc8, word[1] = 487abc, word[2] = 48b708, word[3] = 574f4e5f444e4942, word[4] = 36343630312d4f53, word[5] = 303046534f002f32, word[6] = 4c8825, word[7] = 0, 
setDataFromBlock:: PC = 4765082,  addr = 3102600, sameCmdDataDir? 1, size = 8, data = word[0] = 48b708, 
system.mem_ctrls::access() Cmd: ReadSharedReq, DataDir: 2, CmdDir: 2, Size: 64, addr: 4350150, PC: 4765448, time: 160000
setDataFromBlock:: PC = 4765448,  addr = 4350150, sameCmdDataDir? 1, size = 64, data = word[0] = 0, word[1] = 0, word[2] = 0, word[3] = 0, word[4] = 0, word[5] = 0, word[6] = 0, word[7] = 64, 
setDataFromBlock:: PC = 4765448,  addr = 4357150, sameCmdDataDir? 1, size = 4, data = word[0] = 64, 
system.mem_ctrls::access() Cmd: ReadSharedReq, DataDir: 2, CmdDir: 2, Size: 64, addr: 4350160, PC: 4765458, time: 163500
setDataFromBlock:: PC = 4765458,  addr = 4350160, sameCmdDataDir? 1, size = 64, data = word[0] = 0, word[1] = 0, word[2] = 0, word[3] = 0, word[4] = 0, word[5] = 0, word[6] = 0, word[7] = c, 
setDataFromBlock:: PC = 4765458,  addr = 4357160, sameCmdDataDir? 1, size = 8, data = word[0] = c, 
system.mem_ctrls::access() Cmd: ReadSharedReq, DataDir: 2, CmdDir: 2, Size: 64, addr: 3100610, PC: 4765082, time: 170000
setDataFromBlock:: PC = 4765082,  addr = 3100610, sameCmdDataDir? 1, size = 64, data = word[0] = 487bc8, word[1] = 487abc, word[2] = 48b6e8, word[3] = 444e49425f444c00, word[4] = 55002f345343552f, word[5] = 2f2f323031303130, word[6] = 492fd0, word[7] = 0, 
setDataFromBlock:: PC = 4765082,  addr = 3102610, sameCmdDataDir? 1, size = 8, data = word[0] = 48b6e8, 
system.mem_ctrls::access() Cmd: ReadSharedReq, DataDir: 2, CmdDir: 2, Size: 64, addr: 4350170, PC: 4765416, time: 171000
setDataFromBlock:: PC = 4765416,  addr = 4350170, sameCmdDataDir? 1, size = 64, data = word[0] = 0, word[1] = 0, word[2] = 0, word[3] = 0, word[4] = 0, word[5] = 0, word[6] = 0, word[7] = 64, 
setDataFromBlock:: PC = 4765416,  addr = 4357170, sameCmdDataDir? 1, size = 4, data = word[0] = 64, 
system.mem_ctrls::access() Cmd: ReadSharedReq, DataDir: 2, CmdDir: 2, Size: 64, addr: 4350200, PC: 4765426, time: 174500
setDataFromBlock:: PC = 4765426,  addr = 4350200, sameCmdDataDir? 1, size = 64, data = word[0] = 0, word[1] = 0, word[2] = 0, word[3] = 0, word[4] = 0, word[5] = 0, word[6] = 0, word[7] = d, 
setDataFromBlock:: PC = 4765426,  addr = 4357200, sameCmdDataDir? 1, size = 8, data = word[0] = d, 
system.mem_ctrls::access() Cmd: ReadSharedReq, DataDir: 2, CmdDir: 2, Size: 64, addr: 3100620, PC: 4765082, time: 181000
setDataFromBlock:: PC = 4765082,  addr = 3100620, sameCmdDataDir? 1, size = 64, data = word[0] = 487bc8, word[1] = 487abc, word[2] = 48b6c8, word[3] = 5f444c00544f4e5f, word[4] = 2f2f4542342d5343, word[5] = 3630312d4f534900, word[6] = 0, word[7] = 0, 
setDataFromBlock:: PC = 4765082,  addr = 3102620, sameCmdDataDir? 1, size = 8, data = word[0] = 48b6c8, 
system.mem_ctrls::access() Cmd: ReadSharedReq, DataDir: 2, CmdDir: 2, Size: 64, addr: 4350210, PC: 4765384, time: 182000
setDataFromBlock:: PC = 4765384,  addr = 4350210, sameCmdDataDir? 1, size = 64, data = word[0] = 0, word[1] = 0, word[2] = 0, word[3] = 0, word[4] = 0, word[5] = 0, word[6] = 0, word[7] = 64, 
setDataFromBlock:: PC = 4765384,  addr = 4357210, sameCmdDataDir? 1, size = 4, data = word[0] = 64, 
system.mem_ctrls::access() Cmd: ReadSharedReq, DataDir: 2, CmdDir: 2, Size: 64, addr: 4350220, PC: 4765394, time: 185500
setDataFromBlock:: PC = 4765394,  addr = 4350220, sameCmdDataDir? 1, size = 64, data = word[0] = 0, word[1] = 0, word[2] = 0, word[3] = 0, word[4] = 0, word[5] = 0, word[6] = 0, word[7] = e, 
setDataFromBlock:: PC = 4765394,  addr = 4357220, sameCmdDataDir? 1, size = 8, data = word[0] = e, 
system.mem_ctrls::access() Cmd: ReadSharedReq, DataDir: 2, CmdDir: 2, Size: 64, addr: 3100630, PC: 4765082, time: 192000
setDataFromBlock:: PC = 4765082,  addr = 3100630, sameCmdDataDir? 1, size = 64, data = word[0] = 487bc8, word[1] = 487abc, word[2] = 48b6a8, word[3] = 5f43494d414e5944, word[4] = 3630312d4f534900, word[5] = 2f325343552f3634, word[6] = 4040404, word[7] = 0, 
setDataFromBlock:: PC = 4765082,  addr = 3102630, sameCmdDataDir? 1, size = 8, data = word[0] = 48b6a8, 
system.mem_ctrls::access() Cmd: ReadSharedReq, DataDir: 2, CmdDir: 2, Size: 64, addr: 4350230, PC: 4765352, time: 193000
setDataFromBlock:: PC = 4765352,  addr = 4350230, sameCmdDataDir? 1, size = 64, data = word[0] = 0, word[1] = 0, word[2] = 0, word[3] = 0, word[4] = 0, word[5] = 0, word[6] = 0, word[7] = 64, 
setDataFromBlock:: PC = 4765352,  addr = 4357230, sameCmdDataDir? 1, size = 4, data = word[0] = 64, 
system.mem_ctrls::access() Cmd: ReadSharedReq, DataDir: 2, CmdDir: 2, Size: 64, addr: 4350240, PC: 4765362, time: 196500
setDataFromBlock:: PC = 4765362,  addr = 4350240, sameCmdDataDir? 1, size = 64, data = word[0] = 0, word[1] = 0, word[2] = 0, word[3] = 0, word[4] = 0, word[5] = 0, word[6] = 0, word[7] = 17, 
setDataFromBlock:: PC = 4765362,  addr = 4357240, sameCmdDataDir? 1, size = 8, data = word[0] = 17, 
system.mem_ctrls::access() Cmd: ReadSharedReq, DataDir: 2, CmdDir: 2, Size: 64, addr: 3100740, PC: 4765082, time: 203000
setDataFromBlock:: PC = 4765082,  addr = 3100740, sameCmdDataDir? 1, size = 64, data = word[0] = 487ae0, word[1] = 487abc, word[2] = 48b640, word[3] = 4749004c454e5245, word[4] = 39313a312d363436, word[5] = 363839312d342e33, word[6] = 4c8873, word[7] = 0, 
setDataFromBlock:: PC = 4765082,  addr = 3102740, sameCmdDataDir? 1, size = 8, data = word[0] = 48b640, 
system.mem_ctrls::access() Cmd: ReadSharedReq, DataDir: 2, CmdDir: 2, Size: 64, addr: 4350250, PC: 4765248, time: 204000
setDataFromBlock:: PC = 4765248,  addr = 4350250, sameCmdDataDir? 1, size = 64, data = word[0] = 0, word[1] = 0, word[2] = 0, word[3] = 0, word[4] = 0, word[5] = 0, word[6] = 0, word[7] = 0, 
setDataFromBlock:: PC = 4765248,  addr = 4357250, sameCmdDataDir? 1, size = 4, data = word[0] = 0, 
system.mem_ctrls::access() Cmd: ReadSharedReq, DataDir: 2, CmdDir: 2, Size: 64, addr: 4350260, PC: 4765262, time: 206500
setDataFromBlock:: PC = 4765262,  addr = 4350260, sameCmdDataDir? 1, size = 64, data = word[0] = 0, word[1] = 0, word[2] = 0, word[3] = 0, word[4] = 0, word[5] = 0, word[6] = 0, word[7] = 19, 
setDataFromBlock:: PC = 4765262,  addr = 4357260, sameCmdDataDir? 1, size = 8, data = word[0] = 19, 
system.mem_ctrls::access() Cmd: ReadSharedReq, DataDir: 2, CmdDir: 2, Size: 64, addr: 3100760, PC: 4765082, time: 214000
setDataFromBlock:: PC = 4765082,  addr = 3100760, sameCmdDataDir? 1, size = 64, data = word[0] = 487c30, word[1] = 487abc, word[2] = 48b5b0, word[3] = 4c88aa, word[4] = 552f36343630312d, word[5] = 3639312d342e3358, word[6] = 0, word[7] = 0, 
setDataFromBlock:: PC = 4765082,  addr = 3102760, sameCmdDataDir? 1, size = 8, data = word[0] = 48b5b0, 
setDataFromBlock:: PC = 4765108,  addr = 4357300, sameCmdDataDir? 1, size = 8, data = word[0] = 1f, 
system.mem_ctrls::access() Cmd: ReadSharedReq, DataDir: 2, CmdDir: 2, Size: 64, addr: 3100040, PC: 4765082, time: 223000
setDataFromBlock:: PC = 4765082,  addr = 3100040, sameCmdDataDir? 1, size = 64, data = word[0] = 487bc8, word[1] = 487bc8, word[2] = 487abc, word[3] = 48b5b0, word[4] = 63753d0034736375, word[5] = 303130303046534f, word[6] = 2f2f4949435341, word[7] = 4c88a3, 
setDataFromBlock:: PC = 4765082,  addr = 3103040, sameCmdDataDir? 1, size = 8, data = word[0] = 48b5b0, 
setDataFromBlock:: PC = 4765108,  addr = 4357320, sameCmdDataDir? 1, size = 8, data = word[0] = f, 
system.mem_ctrls::access() Cmd: ReadSharedReq, DataDir: 2, CmdDir: 2, Size: 64, addr: 3100640, PC: 4765082, time: 232000
setDataFromBlock:: PC = 4765082,  addr = 3100640, sameCmdDataDir? 1, size = 64, data = word[0] = 487bc8, word[1] = 487abc, word[2] = 48b5b0, word[3] = 5f444c004b414557, word[4] = 2f345343552f3634, word[5] = 33585f49534e4100, word[6] = 4c883f, word[7] = 0, 
setDataFromBlock:: PC = 4765082,  addr = 3102640, sameCmdDataDir? 1, size = 8, data = word[0] = 48b5b0, 
system.mem_ctrls::access() Cmd: ReadSharedReq, DataDir: 2, CmdDir: 2, Size: 64, addr: 4350340, PC: 4765108, time: 234000
setDataFromBlock:: PC = 4765108,  addr = 4350340, sameCmdDataDir? 1, size = 64, data = word[0] = 0, word[1] = 0, word[2] = 0, word[3] = 0, word[4] = 0, word[5] = 0, word[6] = 0, word[7] = 0, 
setDataFromBlock:: PC = 4765108,  addr = 4357340, sameCmdDataDir? 1, size = 8, data = word[0] = 0, 
writeDataToBlock:: PC = 4765123,  addr = 4345360, sameCmdDataDir? 1, size = 8, data = word[0] = 1000, 
writeDataToBlock:: PC = 4765130,  addr = 4345660, sameCmdDataDir? 1, size = 4, data = word[0] = 64, 
writeDataToBlock:: PC = 4765137,  addr = 4345350, sameCmdDataDir? 1, size = 8, data = word[0] = 400040, 
writeDataToBlock:: PC = 4765144,  addr = 4345570, sameCmdDataDir? 1, size = 8, data = word[0] = 5, 
writeDataToBlock:: PC = 4765151,  addr = 4343260, sameCmdDataDir? 1, size = 8, data = word[0] = 78bfbff, 
writeDataToBlock:: PC = 4765158,  addr = 4345650, sameCmdDataDir? 1, size = 8, data = word[0] = ffffffffff600000, 
writeDataToBlock:: PC = 4765165,  addr = 4040510, sameCmdDataDir? 1, size = 4, data = word[0] = 0, 
writeDataToBlock:: PC = 4765172,  addr = 4345760, sameCmdDataDir? 1, size = 4, data = word[0] = 1, 
setDataFromBlock:: PC = 4765212,  addr = 4355270, sameCmdDataDir? 1, size = 8, data = word[0] = 456ae0, 
setDataFromBlock:: PC = 4765213,  addr = 4355300, sameCmdDataDir? 1, size = 8, data = word[0] = 456aa0, 
setDataFromBlock:: PC = 4765214,  addr = 4355310, sameCmdDataDir? 1, size = 8, data = word[0] = 0, 
setDataFromBlock:: PC = 4765216,  addr = 4355320, sameCmdDataDir? 1, size = 8, data = word[0] = 0, 
setDataFromBlock:: PC = 4765218,  addr = 4355330, sameCmdDataDir? 1, size = 8, data = word[0] = 456151, 
setDataFromBlock:: PC = 4546897,  addr = 4052150, sameCmdDataDir? 1, size = 4, data = word[0] = 0, 
writeDataToBlock:: PC = 4546926,  addr = 4355330, sameCmdDataDir? 1, size = 8, data = word[0] = 456173, 
system.cpu.dcache.cpu_side::recvFunctional: addr = 4355400, size = 64, hasData? 1, MemCmd: WriteReq, word[0] = 78756e694c, word[1] = 0, word[2] = 0, word[3] = 0, word[4] = 0, word[5] = 0, word[6] = 0, word[7] = 0
system.l2.cpu_side::recvFunctional: addr = 4355400, size = 64, hasData? 1, MemCmd: WriteReq, word[0] = 78756e694c, word[1] = 0, word[2] = 0, word[3] = 0, word[4] = 0, word[5] = 0, word[6] = 0, word[7] = 0
system.cpu.dcache.cpu_side::recvFunctional: addr = 4355500, size = 64, hasData? 1, MemCmd: WriteReq, word[0] = 6d65672e6d697300, word[1] = 67726f2e35, word[2] = 0, word[3] = 0, word[4] = 0, word[5] = 0, word[6] = 0, word[7] = 0
system.l2.cpu_side::recvFunctional: addr = 4355500, size = 64, hasData? 1, MemCmd: WriteReq, word[0] = 6d65672e6d697300, word[1] = 67726f2e35, word[2] = 0, word[3] = 0, word[4] = 0, word[5] = 0, word[6] = 0, word[7] = 0
system.cpu.dcache.cpu_side::recvFunctional: addr = 4355600, size = 64, hasData? 1, MemCmd: WriteReq, word[0] = 302e302e330000, word[1] = 0, word[2] = 0, word[3] = 0, word[4] = 0, word[5] = 0, word[6] = 0, word[7] = 0
system.l2.cpu_side::recvFunctional: addr = 4355600, size = 64, hasData? 1, MemCmd: WriteReq, word[0] = 302e302e330000, word[1] = 0, word[2] = 0, word[3] = 0, word[4] = 0, word[5] = 0, word[6] = 0, word[7] = 0
system.cpu.dcache.cpu_side::recvFunctional: addr = 4355700, size = 64, hasData? 1, MemCmd: WriteReq, word[0] = 6f4d203123000000, word[1] = 383120677541206e, word[2] = 313a32333a313120, word[3] = 3032205444452035, word[4] = 3330, word[5] = 0, word[6] = 0, word[7] = 0
system.l2.cpu_side::recvFunctional: addr = 4355700, size = 64, hasData? 1, MemCmd: WriteReq, word[0] = 6f4d203123000000, word[1] = 383120677541206e, word[2] = 313a32333a313120, word[3] = 3032205444452035, word[4] = 3330, word[5] = 0, word[6] = 0, word[7] = 0
system.cpu.dcache.cpu_side::recvFunctional: addr = 4356000, size = 64, hasData? 1, MemCmd: WriteReq, word[0] = 5f36387800000000, word[1] = 3436, word[2] = 0, word[3] = 0, word[4] = 0, word[5] = 0, word[6] = 0, word[7] = 0
system.l2.cpu_side::recvFunctional: addr = 4356000, size = 64, hasData? 1, MemCmd: WriteReq, word[0] = 5f36387800000000, word[1] = 3436, word[2] = 0, word[3] = 0, word[4] = 0, word[5] = 0, word[6] = 0, word[7] = 0
system.cpu.dcache.cpu_side::recvFunctional: addr = 4356100, size = 5, hasData? 1, MemCmd: WriteReq
system.l2.cpu_side::recvFunctional: addr = 4356100, size = 5, hasData? 1, MemCmd: WriteReq
setDataFromBlock:: PC = 4749587,  addr = 4355330, sameCmdDataDir? 1, size = 8, data = word[0] = 456173, 
setDataFromBlock:: PC = 4546939,  addr = 4355602, sameCmdDataDir? 1, size = 1, data = word[0] = 33, 
setDataFromBlock:: PC = 4546960,  addr = 4355603, sameCmdDataDir? 1, size = 1, data = word[0] = 2e, 
setDataFromBlock:: PC = 4547036,  addr = 4355604, sameCmdDataDir? 1, size = 1, data = word[0] = 30, 
setDataFromBlock:: PC = 4546960,  addr = 4355605, sameCmdDataDir? 1, size = 1, data = word[0] = 2e, 
setDataFromBlock:: PC = 4547036,  addr = 4355606, sameCmdDataDir? 1, size = 1, data = word[0] = 30, 
setDataFromBlock:: PC = 4546960,  addr = 4355607, sameCmdDataDir? 1, size = 1, data = word[0] = 0, 
setDataFromBlock:: PC = 4547081,  addr = 4345664, sameCmdDataDir? 1, size = 4, data = word[0] = 0, 
writeDataToBlock:: PC = 4547095,  addr = 4345664, sameCmdDataDir? 1, size = 4, data = word[0] = 30000, 
writeDataToBlock:: PC = 4547113,  addr = 4355330, sameCmdDataDir? 1, size = 8, data = word[0] = 45622e, 
writeDataToBlock:: PC = 4548640,  addr = 4355320, sameCmdDataDir? 1, size = 8, data = word[0] = 0, 
writeDataToBlock:: PC = 4548642,  addr = 4355310, sameCmdDataDir? 1, size = 8, data = word[0] = 7fffffffeb86, 
writeDataToBlock:: PC = 4548644,  addr = 4355300, sameCmdDataDir? 1, size = 8, data = word[0] = 7fffffffeb00, 
writeDataToBlock:: PC = 4548646,  addr = 4355270, sameCmdDataDir? 1, size = 8, data = word[0] = 0, 
writeDataToBlock:: PC = 4548648,  addr = 4355260, sameCmdDataDir? 1, size = 8, data = word[0] = 456aa0, 
writeDataToBlock:: PC = 4548649,  addr = 4355250, sameCmdDataDir? 1, size = 8, data = word[0] = 456ae0, 
setDataFromBlock:: PC = 4548654,  addr = 4345350, sameCmdDataDir? 1, size = 8, data = word[0] = 400040, 
setDataFromBlock:: PC = 4548666,  addr = 4345570, sameCmdDataDir? 1, size = 8, data = word[0] = 5, 
system.mem_ctrls::access() Cmd: ReadSharedReq, DataDir: 2, CmdDir: 2, Size: 64, addr: 100, PC: 4548713, time: 362000
setDataFromBlock:: PC = 4548713,  addr = 100, sameCmdDataDir? 1, size = 64, data = word[0] = 500000001, word[1] = 2d4855007047c8b8, word[2] = d8450300000001b8, word[3] = d5450f4810f98070, word[4] = ffff804008ec8348, word[5] = fee083c019182444, word[6] = 4403481b72c43949, word[7] = 8b4808246c8b4424, 
setDataFromBlock:: PC = 4548713,  addr = 100, sameCmdDataDir? 1, size = 4, data = word[0] = 1, 
system.mem_ctrls::access() Cmd: ReadSharedReq, DataDir: 2, CmdDir: 2, Size: 64, addr: 170, PC: 4548713, time: 368500
setDataFromBlock:: PC = 4548713,  addr = 170, sameCmdDataDir? 1, size = 64, data = word[0] = 600000001, word[1] = 801f0fe2, word[2] = 48004bee44bae045, word[3] = 841f0f, word[4] = 90c308c48348c031, word[5] = 53370e8df8948, word[6] = f01c5f641ff31e4, word[7] = 4cef8948f88944b9, 
setDataFromBlock:: PC = 4548713,  addr = 170, sameCmdDataDir? 1, size = 4, data = word[0] = 1, 
system.mem_ctrls::access() Cmd: ReadSharedReq, DataDir: 2, CmdDir: 2, Size: 64, addr: 260, PC: 4548713, time: 375000
setDataFromBlock:: PC = 4548713,  addr = 260, sameCmdDataDir? 1, size = 64, data = word[0] = 400000004, word[1] = 441f0f662473, word[2] = 10ec8348e5894855, word[3] = e904428d48028b44, word[4] = 41f58949c0315541, word[5] = 8024948d481824, word[6] = f85589486024548b, word[7] = 8b48fffffe9ae9c1, 
setDataFromBlock:: PC = 4548713,  addr = 260, sameCmdDataDir? 1, size = 4, data = word[0] = 4, 
system.mem_ctrls::access() Cmd: ReadSharedReq, DataDir: 2, CmdDir: 2, Size: 64, addr: 350, PC: 4548713, time: 381500
setDataFromBlock:: PC = 4548713,  addr = 350, sameCmdDataDir? 1, size = 64, data = word[0] = 400000007, word[1] = c600055ba1e8004d, word[2] = 10ec8348e5894855, word[3] = ffff46e90824548b, word[4] = e8ef8944e6894cef, word[5] = 70e9f0458948ffff, word[6] = ff8548c789490000, word[7] = 16eee8c789480001, 
setDataFromBlock:: PC = 4548713,  addr = 350, sameCmdDataDir? 1, size = 4, data = word[0] = 7, 
system.mem_ctrls::access() Cmd: ReadSharedReq, DataDir: 2, CmdDir: 2, Size: 64, addr: 430, PC: 4548718, time: 384500
setDataFromBlock:: PC = 4548718,  addr = 430, sameCmdDataDir? 1, size = 64, data = word[0] = 8, word[1] = 3d834800055963e8, word[2] = 90c3c9f8458b48f8, word[3] = 90909090c35c415d, word[4] = c931d2310000008b, word[5] = 8948df8948182474, word[6] = e083e88944dc74c0, word[7] = e86b8b4cc07b8b48, 
setDataFromBlock:: PC = 4548718,  addr = 430, sameCmdDataDir? 1, size = 8, data = word[0] = 8, 
system.mem_ctrls::access() Cmd: ReadSharedReq, DataDir: 2, CmdDir: 2, Size: 64, addr: 420, PC: 4548722, time: 385000
setDataFromBlock:: PC = 4548722,  addr = 420, sameCmdDataDir? 1, size = 64, data = word[0] = 60, word[1] = 4d9e18bf007048, word[2] = 458948c8ff48eb75, word[3] = 5b20c48348240489, word[4] = 840f284388ff3c01, word[5] = 8b48000000802484, word[6] = 8548a774c78948ff, word[7] = f0438b48000116cc, 
setDataFromBlock:: PC = 4548722,  addr = 420, sameCmdDataDir? 1, size = 8, data = word[0] = 60, 
system.mem_ctrls::access() Cmd: ReadSharedReq, DataDir: 2, CmdDir: 2, Size: 64, addr: 410, PC: 4548726, time: 386000
setDataFromBlock:: PC = 4548726,  addr = 410, sameCmdDataDir? 1, size = 64, data = word[0] = 20, word[1] = be0f74e58948c0, word[2] = d28502c083480101, word[3] = 4d08c08348008b4c, word[4] = 758d480045b60fc5, word[5] = 8d48000001af840f, word[6] = 38448d48ff854d00, word[7] = e830ec8348fb8948, 
setDataFromBlock:: PC = 4548726,  addr = 410, sameCmdDataDir? 1, size = 8, data = word[0] = 20, 
system.mem_ctrls::access() Cmd: ReadSharedReq, DataDir: 2, CmdDir: 2, Size: 64, addr: 370, PC: 4548730, time: 386500
setDataFromBlock:: PC = 4548730,  addr = 370, sameCmdDataDir? 1, size = 64, data = word[0] = 6fe550, word[1] = 1f0fc35d5b08c4, word[2] = 14b60fc033c18948, word[3] = 1f0f0005dfb3e8, word[4] = 8944c68948ea8948, word[5] = 53380e8df8948, word[6] = ffff75e900000002, word[7] = 9090909000000224, 
setDataFromBlock:: PC = 4548730,  addr = 370, sameCmdDataDir? 1, size = 8, data = word[0] = 6fe550, 
writeDataToBlock:: PC = 4548747,  addr = 4355220, sameCmdDataDir? 1, size = 8, data = word[0] = fffffffffffffff0, 
writeDataToBlock:: PC = 4548756,  addr = 4355230, sameCmdDataDir? 1, size = 8, data = word[0] = f, 
system.mem_ctrls::access() Cmd: ReadSharedReq, DataDir: 2, CmdDir: 2, Size: 64, addr: 4040670, PC: 4548823, time: 397500
setDataFromBlock:: PC = 4548823,  addr = 4040670, sameCmdDataDir? 1, size = 64, data = word[0] = 6fff40, word[1] = 700520, word[2] = 7177a8, word[3] = 43d820, word[4] = 400ff0, word[5] = 800, word[6] = 0, word[7] = 0, 
setDataFromBlock:: PC = 4548823,  addr = 4045670, sameCmdDataDir? 1, size = 8, data = word[0] = 800, 
writeDataToBlock:: PC = 4548843,  addr = 4355170, sameCmdDataDir? 1, size = 8, data = word[0] = 4568f0, 
writeDataToBlock:: PC = 4752304,  addr = 4355150, sameCmdDataDir? 1, size = 8, data = word[0] = 8, 
writeDataToBlock:: PC = 4752309,  addr = 4355160, sameCmdDataDir? 1, size = 8, data = word[0] = 60, 
system.mem_ctrls::access() Cmd: ReadSharedReq, DataDir: 2, CmdDir: 2, Size: 64, addr: 4340120, PC: 4752318, time: 407000
setDataFromBlock:: PC = 4752318,  addr = 4340120, sameCmdDataDir? 1, size = 64, data = word[0] = 0, word[1] = 0, word[2] = 0, word[3] = 0, word[4] = 0, word[5] = 0, word[6] = 0, word[7] = 0, 
setDataFromBlock:: PC = 4752318,  addr = 4344120, sameCmdDataDir? 1, size = 8, data = word[0] = 0, 
system.mem_ctrls::access() Cmd: ReadExReq, DataDir: 2, CmdDir: 2, Size: 64, addr: 4350130, PC: 4752370, time: 411500
setDataFromBlock:: PC = 4752370,  addr = 4350130, sameCmdDataDir? 1, size = 64, data = word[0] = 0, word[1] = 0, word[2] = 0, word[3] = 0, word[4] = 0, word[5] = 0, word[6] = 0, word[7] = 4001c0, 
writeDataToBlock:: PC = 4752370,  addr = 4355130, sameCmdDataDir? 1, size = 8, data = word[0] = 4883f7, 
writeDataToBlock:: PC = 4878167,  addr = 4344120, sameCmdDataDir? 1, size = 8, data = word[0] = 71c000, 
setDataFromBlock:: PC = 4878178,  addr = 4355130, sameCmdDataDir? 1, size = 8, data = word[0] = 4883f7, 
setDataFromBlock:: PC = 4752382,  addr = 4344120, sameCmdDataDir? 1, size = 8, data = word[0] = 71c000, 
writeDataToBlock:: PC = 4752395,  addr = 4355130, sameCmdDataDir? 1, size = 8, data = word[0] = 488410, 
writeDataToBlock:: PC = 4878167,  addr = 4344120, sameCmdDataDir? 1, size = 8, data = word[0] = 71cf30, 
setDataFromBlock:: PC = 4878178,  addr = 4355130, sameCmdDataDir? 1, size = 8, data = word[0] = 488410, 
setDataFromBlock:: PC = 4752351,  addr = 4355160, sameCmdDataDir? 1, size = 8, data = word[0] = 60, 
setDataFromBlock:: PC = 4752356,  addr = 4355150, sameCmdDataDir? 1, size = 8, data = word[0] = 8, 
setDataFromBlock:: PC = 4752365,  addr = 4355170, sameCmdDataDir? 1, size = 8, data = word[0] = 4568f0, 
setDataFromBlock:: PC = 4548848,  addr = 4355230, sameCmdDataDir? 1, size = 8, data = word[0] = f, 
system.mem_ctrls::access() Cmd: ReadExReq, DataDir: 2, CmdDir: 2, Size: 64, addr: 4310440, PC: 4548853, time: 451500
setDataFromBlock:: PC = 4548853,  addr = 4310440, sameCmdDataDir? 1, size = 64, data = word[0] = 0, word[1] = 0, word[2] = 0, word[3] = 0, word[4] = 0, word[5] = 0, word[6] = 0, word[7] = 0, 
writeDataToBlock:: PC = 4548853,  addr = 4317440, sameCmdDataDir? 1, size = 8, data = word[0] = 3e, 
setDataFromBlock:: PC = 4548868,  addr = 4355220, sameCmdDataDir? 1, size = 8, data = word[0] = fffffffffffffff0, 
system.mem_ctrls::access() Cmd: ReadExReq, DataDir: 2, CmdDir: 2, Size: 64, addr: 4310500, PC: 4548902, time: 467000
setDataFromBlock:: PC = 4548902,  addr = 4310500, sameCmdDataDir? 1, size = 64, data = word[0] = 0, word[1] = 0, word[2] = 0, word[3] = 0, word[4] = 0, word[5] = 0, word[6] = 0, word[7] = 0, 
writeDataToBlock:: PC = 4548902,  addr = 4317500, sameCmdDataDir? 1, size = 8, data = word[0] = 71c800, 
writeDataToBlock:: PC = 4548915,  addr = 4355210, sameCmdDataDir? 1, size = 8, data = word[0] = 71c000, 
system.mem_ctrls::access() Cmd: ReadExReq, DataDir: 2, CmdDir: 2, Size: 64, addr: 4320600, PC: 4548920, time: 469500
setDataFromBlock:: PC = 4548920,  addr = 4320600, sameCmdDataDir? 1, size = 64, data = word[0] = 0, word[1] = 0, word[2] = 0, word[3] = 0, word[4] = 0, word[5] = 0, word[6] = 0, word[7] = 0, 
writeDataToBlock:: PC = 4548920,  addr = 4325600, sameCmdDataDir? 1, size = 8, data = word[0] = 60, 
system.mem_ctrls::access() Cmd: ReadExReq, DataDir: 2, CmdDir: 2, Size: 64, addr: 4310510, PC: 4548927, time: 471500
setDataFromBlock:: PC = 4548927,  addr = 4310510, sameCmdDataDir? 1, size = 64, data = word[0] = 0, word[1] = 0, word[2] = 0, word[3] = 0, word[4] = 0, word[5] = 0, word[6] = 0, word[7] = 0, 
writeDataToBlock:: PC = 4548927,  addr = 4317510, sameCmdDataDir? 1, size = 1, data = word[0] = 1, 
writeDataToBlock:: PC = 4548934,  addr = 4355170, sameCmdDataDir? 1, size = 8, data = word[0] = 45694b, 
writeDataToBlock:: PC = 4707424,  addr = 4355160, sameCmdDataDir? 1, size = 8, data = word[0] = 71c800, 
system.mem_ctrls::access() Cmd: ReadSharedReq, DataDir: 2, CmdDir: 2, Size: 64, addr: 3770520, PC: 4707506, time: 488500
setDataFromBlock:: PC = 4707506,  addr = 3770520, sameCmdDataDir? 1, size = 64, data = word[0] = 0, word[1] = 0, word[2] = 703bc0, word[3] = c, word[4] = 4d7159, word[5] = 4c2332, word[6] = 20000000b, word[7] = 4c2421, 
setDataFromBlock:: PC = 4707506,  addr = 3772520, sameCmdDataDir? 1, size = 8, data = word[0] = 703bc0, 
system.mem_ctrls::access() Cmd: ReadSharedReq, DataDir: 2, CmdDir: 2, Size: 64, addr: 3770530, PC: 4707509, time: 489500
setDataFromBlock:: PC = 4707509,  addr = 3770530, sameCmdDataDir? 1, size = 64, data = word[0] = 0, word[1] = 0, word[2] = 703bc0, word[3] = 4c24f8, word[4] = 4c22dc, word[5] = 100000002, word[6] = 4c22ca, word[7] = 300000004, 
setDataFromBlock:: PC = 4707509,  addr = 3772530, sameCmdDataDir? 1, size = 8, data = word[0] = 703bc0, 
system.mem_ctrls::access() Cmd: ReadSharedReq, DataDir: 2, CmdDir: 2, Size: 64, addr: 3770540, PC: 4707513, time: 490000
setDataFromBlock:: PC = 4707513,  addr = 3770540, sameCmdDataDir? 1, size = 64, data = word[0] = 0, word[1] = 0, word[2] = 703be0, word[3] = 31, word[4] = 100000001, word[5] = 4c2335, word[6] = 4c23aa, word[7] = 4c2418, 
setDataFromBlock:: PC = 4707513,  addr = 3772540, sameCmdDataDir? 1, size = 8, data = word[0] = 703be0, 
system.mem_ctrls::access() Cmd: ReadSharedReq, DataDir: 2, CmdDir: 2, Size: 64, addr: 3770550, PC: 4707517, time: 491000
setDataFromBlock:: PC = 4707517,  addr = 3770550, sameCmdDataDir? 1, size = 64, data = word[0] = 0, word[1] = 0, word[2] = 703bc8, word[3] = 4c222e, word[4] = 4c22cd, word[5] = 4c2338, word[6] = 100000007, word[7] = d, 
setDataFromBlock:: PC = 4707517,  addr = 3772550, sameCmdDataDir? 1, size = 8, data = word[0] = 703bc8, 
system.mem_ctrls::access() Cmd: ReadExReq, DataDir: 2, CmdDir: 2, Size: 64, addr: 4370000, PC: 4707521, time: 491500
setDataFromBlock:: PC = 4707521,  addr = 4370000, sameCmdDataDir? 1, size = 64, data = word[0] = 0, word[1] = 0, word[2] = 0, word[3] = 0, word[4] = 0, word[5] = 0, word[6] = 0, word[7] = 0, 
writeDataToBlock:: PC = 4707521,  addr = 4374000, sameCmdDataDir? 1, size = 8, data = word[0] = 703bc0, 
system.mem_ctrls::access() Cmd: ReadExReq, DataDir: 2, CmdDir: 2, Size: 64, addr: 4370010, PC: 4707524, time: 492000
setDataFromBlock:: PC = 4707524,  addr = 4370010, sameCmdDataDir? 1, size = 64, data = word[0] = 0, word[1] = 0, word[2] = 0, word[3] = 0, word[4] = 0, word[5] = 0, word[6] = 0, word[7] = 0, 
writeDataToBlock:: PC = 4707524,  addr = 4374010, sameCmdDataDir? 1, size = 8, data = word[0] = 703bc0, 
system.mem_ctrls::access() Cmd: ReadExReq, DataDir: 2, CmdDir: 2, Size: 64, addr: 4370020, PC: 4707528, time: 492500
setDataFromBlock:: PC = 4707528,  addr = 4370020, sameCmdDataDir? 1, size = 64, data = word[0] = 0, word[1] = 0, word[2] = 0, word[3] = 0, word[4] = 0, word[5] = 0, word[6] = 0, word[7] = 0, 
writeDataToBlock:: PC = 4707528,  addr = 4374020, sameCmdDataDir? 1, size = 8, data = word[0] = 703be0, 
system.mem_ctrls::access() Cmd: ReadExReq, DataDir: 2, CmdDir: 2, Size: 64, addr: 4370030, PC: 4707532, time: 493000
setDataFromBlock:: PC = 4707532,  addr = 4370030, sameCmdDataDir? 1, size = 64, data = word[0] = 0, word[1] = 0, word[2] = 0, word[3] = 0, word[4] = 0, word[5] = 0, word[6] = 0, word[7] = 0, 
writeDataToBlock:: PC = 4707532,  addr = 4374030, sameCmdDataDir? 1, size = 8, data = word[0] = 703bc8, 
setDataFromBlock:: PC = 4707603,  addr = 4355160, sameCmdDataDir? 1, size = 8, data = word[0] = 71c800, 
setDataFromBlock:: PC = 4707614,  addr = 4355170, sameCmdDataDir? 1, size = 8, data = word[0] = 45694b, 
setDataFromBlock:: PC = 4548939,  addr = 4355210, sameCmdDataDir? 1, size = 8, data = word[0] = 71c000, 
system.mem_ctrls::access() Cmd: ReadExReq, DataDir: 2, CmdDir: 2, Size: 64, addr: 4370150, PC: 4548958, time: 504000
setDataFromBlock:: PC = 4548958,  addr = 4370150, sameCmdDataDir? 1, size = 64, data = word[0] = 0, word[1] = 0, word[2] = 0, word[3] = 0, word[4] = 0, word[5] = 0, word[6] = 0, word[7] = 0, 
writeDataToBlock:: PC = 4548958,  addr = 4374150, sameCmdDataDir? 1, size = 8, data = word[0] = 718f30, 
system.mem_ctrls::access() Cmd: ReadExReq, DataDir: 2, CmdDir: 2, Size: 64, addr: 4370140, PC: 4548967, time: 505000
setDataFromBlock:: PC = 4548967,  addr = 4370140, sameCmdDataDir? 1, size = 64, data = word[0] = 0, word[1] = 0, word[2] = 0, word[3] = 0, word[4] = 0, word[5] = 0, word[6] = 0, word[7] = 0, 
writeDataToBlock:: PC = 4548967,  addr = 4374140, sameCmdDataDir? 1, size = 8, data = word[0] = 71c860, 
system.mem_ctrls::access() Cmd: ReadExReq, DataDir: 2, CmdDir: 2, Size: 64, addr: 4370160, PC: 4548970, time: 505500
setDataFromBlock:: PC = 4548970,  addr = 4370160, sameCmdDataDir? 1, size = 64, data = word[0] = 0, word[1] = 0, word[2] = 0, word[3] = 0, word[4] = 0, word[5] = 0, word[6] = 0, word[7] = 0, 
writeDataToBlock:: PC = 4548970,  addr = 4374160, sameCmdDataDir? 1, size = 8, data = word[0] = 71c860, 
system.mem_ctrls::access() Cmd: ReadSharedReq, DataDir: 2, CmdDir: 2, Size: 64, addr: 4320110, PC: 4549024, time: 509000
setDataFromBlock:: PC = 4549024,  addr = 4320110, sameCmdDataDir? 1, size = 64, data = word[0] = 0, word[1] = 0, word[2] = 0, word[3] = 0, word[4] = 0, word[5] = 0, word[6] = 0, word[7] = 0, 
setDataFromBlock:: PC = 4549024,  addr = 4325114, sameCmdDataDir? 1, size = 1, data = word[0] = 0, 
writeDataToBlock:: PC = 4549024,  addr = 4325114, sameCmdDataDir? 1, size = 1, data = word[0] = 0, 
system.mem_ctrls::access() Cmd: ReadExReq, DataDir: 2, CmdDir: 2, Size: 64, addr: 4320560, PC: 4549034, time: 513000
setDataFromBlock:: PC = 4549034,  addr = 4320560, sameCmdDataDir? 1, size = 64, data = word[0] = 0, word[1] = 0, word[2] = 0, word[3] = 0, word[4] = 0, word[5] = 0, word[6] = 0, word[7] = 0, 
writeDataToBlock:: PC = 4549034,  addr = 4325560, sameCmdDataDir? 1, size = 8, data = word[0] = 8, 
system.mem_ctrls::access() Cmd: ReadExReq, DataDir: 2, CmdDir: 2, Size: 64, addr: 4320550, PC: 4549041, time: 514000
setDataFromBlock:: PC = 4549041,  addr = 4320550, sameCmdDataDir? 1, size = 64, data = word[0] = 0, word[1] = 0, word[2] = 0, word[3] = 0, word[4] = 0, word[5] = 0, word[6] = 0, word[7] = 0, 
writeDataToBlock:: PC = 4549041,  addr = 4325550, sameCmdDataDir? 1, size = 8, data = word[0] = 60, 
system.mem_ctrls::access() Cmd: ReadExReq, DataDir: 2, CmdDir: 2, Size: 64, addr: 4320530, PC: 4549048, time: 515000
setDataFromBlock:: PC = 4549048,  addr = 4320530, sameCmdDataDir? 1, size = 64, data = word[0] = 0, word[1] = 0, word[2] = 0, word[3] = 0, word[4] = 0, word[5] = 0, word[6] = 0, word[7] = 0, 
writeDataToBlock:: PC = 4549048,  addr = 4325530, sameCmdDataDir? 1, size = 8, data = word[0] = 6fe550, 
system.mem_ctrls::access() Cmd: ReadExReq, DataDir: 2, CmdDir: 2, Size: 64, addr: 4320540, PC: 4549055, time: 516500
setDataFromBlock:: PC = 4549055,  addr = 4320540, sameCmdDataDir? 1, size = 64, data = word[0] = 0, word[1] = 0, word[2] = 0, word[3] = 0, word[4] = 0, word[5] = 0, word[6] = 0, word[7] = 0, 
writeDataToBlock:: PC = 4549055,  addr = 4325540, sameCmdDataDir? 1, size = 8, data = word[0] = 20, 
system.mem_ctrls::access() Cmd: ReadExReq, DataDir: 2, CmdDir: 2, Size: 64, addr: 4320610, PC: 4549062, time: 519000
setDataFromBlock:: PC = 4549062,  addr = 4320610, sameCmdDataDir? 1, size = 64, data = word[0] = 0, word[1] = 0, word[2] = 0, word[3] = 0, word[4] = 0, word[5] = 0, word[6] = 0, word[7] = 0, 
writeDataToBlock:: PC = 4549062,  addr = 4325610, sameCmdDataDir? 1, size = 8, data = word[0] = 1, 
system.mem_ctrls::access() Cmd: ReadExReq, DataDir: 2, CmdDir: 2, Size: 64, addr: 4320440, PC: 4549073, time: 521000
setDataFromBlock:: PC = 4549073,  addr = 4320440, sameCmdDataDir? 1, size = 64, data = word[0] = 0, word[1] = 0, word[2] = 0, word[3] = 0, word[4] = 0, word[5] = 0, word[6] = 0, word[7] = 0, 
writeDataToBlock:: PC = 4549073,  addr = 4321440, sameCmdDataDir? 1, size = 8, data = word[0] = 40, 
system.mem_ctrls::access() Cmd: ReadExReq, DataDir: 2, CmdDir: 2, Size: 64, addr: 4340000, PC: 4549084, time: 523000
setDataFromBlock:: PC = 4549084,  addr = 4340000, sameCmdDataDir? 1, size = 64, data = word[0] = 0, word[1] = 0, word[2] = 0, word[3] = 0, word[4] = 0, word[5] = 0, word[6] = 0, word[7] = 0, 
writeDataToBlock:: PC = 4549084,  addr = 4345000, sameCmdDataDir? 1, size = 8, data = word[0] = 1, 
system.mem_ctrls::access() Cmd: ReadExReq, DataDir: 2, CmdDir: 2, Size: 64, addr: 4340040, PC: 4549095, time: 525500
setDataFromBlock:: PC = 4549095,  addr = 4340040, sameCmdDataDir? 1, size = 64, data = word[0] = 0, word[1] = 0, word[2] = 0, word[3] = 0, word[4] = 0, word[5] = 0, word[6] = 0, word[7] = 0, 
writeDataToBlock:: PC = 4549095,  addr = 4345040, sameCmdDataDir? 1, size = 8, data = word[0] = 719320, 
system.mem_ctrls::access() Cmd: ReadExReq, DataDir: 2, CmdDir: 2, Size: 64, addr: 4320510, PC: 4549106, time: 527500
setDataFromBlock:: PC = 4549106,  addr = 4320510, sameCmdDataDir? 1, size = 64, data = word[0] = 0, word[1] = 0, word[2] = 0, word[3] = 0, word[4] = 0, word[5] = 0, word[6] = 0, word[7] = 0, 
writeDataToBlock:: PC = 4549106,  addr = 4321510, sameCmdDataDir? 1, size = 8, data = word[0] = 719740, 
setDataFromBlock:: PC = 4549136,  addr = 4045670, sameCmdDataDir? 1, size = 8, data = word[0] = 800, 
system.mem_ctrls::access() Cmd: ReadExReq, DataDir: 2, CmdDir: 2, Size: 64, addr: 4340010, PC: 4549143, time: 541500
setDataFromBlock:: PC = 4549143,  addr = 4340010, sameCmdDataDir? 1, size = 64, data = word[0] = 0, word[1] = 0, word[2] = 0, word[3] = 0, word[4] = 0, word[5] = 0, word[6] = 0, word[7] = 0, 
writeDataToBlock:: PC = 4549143,  addr = 4345010, sameCmdDataDir? 1, size = 8, data = word[0] = 1, 
system.mem_ctrls::access() Cmd: ReadExReq, DataDir: 2, CmdDir: 2, Size: 64, addr: 4340030, PC: 4549166, time: 545000
setDataFromBlock:: PC = 4549166,  addr = 4340030, sameCmdDataDir? 1, size = 64, data = word[0] = 0, word[1] = 0, word[2] = 0, word[3] = 0, word[4] = 0, word[5] = 0, word[6] = 0, word[7] = 0, 
writeDataToBlock:: PC = 4549166,  addr = 4345030, sameCmdDataDir? 1, size = 8, data = word[0] = 720, 
writeDataToBlock:: PC = 4549181,  addr = 4045670, sameCmdDataDir? 1, size = 8, data = word[0] = f20, 
system.mem_ctrls::access() Cmd: ReadExReq, DataDir: 2, CmdDir: 2, Size: 64, addr: 4340020, PC: 4549197, time: 552500
setDataFromBlock:: PC = 4549197,  addr = 4340020, sameCmdDataDir? 1, size = 64, data = word[0] = 0, word[1] = 0, word[2] = 0, word[3] = 0, word[4] = 0, word[5] = 0, word[6] = 0, word[7] = 0, 
writeDataToBlock:: PC = 4549197,  addr = 4345020, sameCmdDataDir? 1, size = 8, data = word[0] = 10, 
setDataFromBlock:: PC = 4549208,  addr = 4355250, sameCmdDataDir? 1, size = 8, data = word[0] = 456ae0, 
setDataFromBlock:: PC = 4549209,  addr = 4355260, sameCmdDataDir? 1, size = 8, data = word[0] = 456aa0, 
setDataFromBlock:: PC = 4549210,  addr = 4355270, sameCmdDataDir? 1, size = 8, data = word[0] = 0, 
setDataFromBlock:: PC = 4549212,  addr = 4355300, sameCmdDataDir? 1, size = 8, data = word[0] = 7fffffffeb00, 
setDataFromBlock:: PC = 4549214,  addr = 4355310, sameCmdDataDir? 1, size = 8, data = word[0] = 7fffffffeb86, 
setDataFromBlock:: PC = 4549216,  addr = 4355320, sameCmdDataDir? 1, size = 8, data = word[0] = 0, 
setDataFromBlock:: PC = 4549218,  addr = 4355330, sameCmdDataDir? 1, size = 8, data = word[0] = 45622e, 
system.mem_ctrls::access() Cmd: ReadExReq, DataDir: 2, CmdDir: 2, Size: 64, addr: 4350510, PC: 4547118, time: 566000
setDataFromBlock:: PC = 4547118,  addr = 4350510, sameCmdDataDir? 1, size = 64, data = word[0] = 0, word[1] = 0, word[2] = 0, word[3] = 0, word[4] = 0, word[5] = 67726f2e35, word[6] = 0, word[7] = 562f746962726464, 
writeDataToBlock:: PC = 4547118,  addr = 4356510, sameCmdDataDir? 1, size = 8, data = word[0] = 0, 
writeDataToBlock:: PC = 4547138,  addr = 4356517, sameCmdDataDir? 1, size = 1, data = word[0] = ff, 
writeDataToBlock:: PC = 4547146,  addr = 4356516, sameCmdDataDir? 1, size = 1, data = word[0] = a, 
setDataFromBlock:: PC = 4547163,  addr = 4374140, sameCmdDataDir? 1, size = 8, data = word[0] = 71c860, 
setDataFromBlock:: PC = 4547202,  addr = 4356510, sameCmdDataDir? 1, size = 8, data = word[0] = ff0a000000000000, 
writeDataToBlock:: PC = 4547213,  addr = 4356510, sameCmdDataDir? 1, size = 8, data = word[0] = 35ec00000047500, 
system.mem_ctrls::access() Cmd: ReadExReq, DataDir: 2, CmdDir: 2, Size: 64, addr: 4370210, PC: 4547221, time: 585000
setDataFromBlock:: PC = 4547221,  addr = 4370210, sameCmdDataDir? 1, size = 64, data = word[0] = 0, word[1] = 0, word[2] = 0, word[3] = 0, word[4] = 0, word[5] = 0, word[6] = 0, word[7] = 0, 
writeDataToBlock:: PC = 4547221,  addr = 4374210, sameCmdDataDir? 1, size = 8, data = word[0] = 35ec00000047500, 
setDataFromBlock:: PC = 4547247,  addr = 4336310, sameCmdDataDir? 1, size = 8, data = word[0] = 7fffffffedb8, 
setDataFromBlock:: PC = 4547254,  addr = 4355360, sameCmdDataDir? 1, size = 8, data = word[0] = 7fffffffeda8, 
setDataFromBlock:: PC = 4547259,  addr = 4355354, sameCmdDataDir? 1, size = 4, data = word[0] = 1, 
writeDataToBlock:: PC = 4547263,  addr = 4355330, sameCmdDataDir? 1, size = 8, data = word[0] = 4562c4, 
writeDataToBlock:: PC = 4768021,  addr = 4355300, sameCmdDataDir? 1, size = 8, data = word[0] = 456ae0, 
writeDataToBlock:: PC = 4768026,  addr = 4355310, sameCmdDataDir? 1, size = 8, data = word[0] = 456aa0, 
writeDataToBlock:: PC = 4768031,  addr = 4355320, sameCmdDataDir? 1, size = 8, data = word[0] = 0, 
system.mem_ctrls::access() Cmd: ReadSharedReq, DataDir: 2, CmdDir: 2, Size: 64, addr: 4050440, PC: 4768063, time: 602500
setDataFromBlock:: PC = 4768063,  addr = 4050440, sameCmdDataDir? 1, size = 64, data = word[0] = 0, word[1] = 0, word[2] = 0, word[3] = 37f, word[4] = 0, word[5] = 0, word[6] = 0, word[7] = 0, 
setDataFromBlock:: PC = 4768063,  addr = 4053440, sameCmdDataDir? 1, size = 2, data = word[0] = 37f, 
writeDataToBlock:: PC = 4768070,  addr = 4052150, sameCmdDataDir? 1, size = 4, data = word[0] = 0, 
writeDataToBlock:: PC = 4768080,  addr = 4355270, sameCmdDataDir? 1, size = 8, data = word[0] = 48c155, 
writeDataToBlock:: PC = 4804928,  addr = 4355266, sameCmdDataDir? 1, size = 2, data = word[0] = 0, 
setDataFromBlock:: PC = 4804932,  addr = 4355266, sameCmdDataDir? 1, size = 2, data = word[0] = 0, 
writeDataToBlock:: PC = 4804948,  addr = 4355266, sameCmdDataDir? 1, size = 2, data = word[0] = 33f, 
setDataFromBlock:: PC = 4804953,  addr = 4355266, sameCmdDataDir? 1, size = 2, data = word[0] = 33f, 
setDataFromBlock:: PC = 4804957,  addr = 4355270, sameCmdDataDir? 1, size = 8, data = word[0] = 48c155, 
system.mem_ctrls::access() Cmd: ReadExReq, DataDir: 2, CmdDir: 2, Size: 64, addr: 4340770, PC: 4768085, time: 618000
setDataFromBlock:: PC = 4768085,  addr = 4340770, sameCmdDataDir? 1, size = 64, data = word[0] = 0, word[1] = 0, word[2] = 0, word[3] = 0, word[4] = 0, word[5] = 0, word[6] = 0, word[7] = 0, 
writeDataToBlock:: PC = 4768085,  addr = 4345770, sameCmdDataDir? 1, size = 4, data = word[0] = 1, 
writeDataToBlock:: PC = 4768091,  addr = 4346000, sameCmdDataDir? 1, size = 8, data = word[0] = 7fffffffeda8, 
writeDataToBlock:: PC = 4768098,  addr = 4336310, sameCmdDataDir? 1, size = 8, data = word[0] = 7fffffffedb8, 
writeDataToBlock:: PC = 4768105,  addr = 4355270, sameCmdDataDir? 1, size = 8, data = word[0] = 48c16e, 
setDataFromBlock:: PC = 4767856,  addr = 4345760, sameCmdDataDir? 1, size = 4, data = word[0] = 1, 
writeDataToBlock:: PC = 4767862,  addr = 4355260, sameCmdDataDir? 1, size = 8, data = word[0] = 1, 
setDataFromBlock:: PC = 4767867,  addr = 4355260, sameCmdDataDir? 1, size = 8, data = word[0] = 1, 
setDataFromBlock:: PC = 4767868,  addr = 4355270, sameCmdDataDir? 1, size = 8, data = word[0] = 48c16e, 
writeDataToBlock:: PC = 4768110,  addr = 4355270, sameCmdDataDir? 1, size = 8, data = word[0] = 48c173, 
writeDataToBlock:: PC = 4765600,  addr = 4355260, sameCmdDataDir? 1, size = 8, data = word[0] = 7fffffffeb00, 
writeDataToBlock:: PC = 4765602,  addr = 4355250, sameCmdDataDir? 1, size = 8, data = word[0] = 7fffffffedb8, 
writeDataToBlock:: PC = 4765604,  addr = 4355240, sameCmdDataDir? 1, size = 8, data = word[0] = 7fffffffeda8, 
writeDataToBlock:: PC = 4765605,  addr = 4355230, sameCmdDataDir? 1, size = 8, data = word[0] = 1, 
setDataFromBlock:: PC = 4765621,  addr = 4345360, sameCmdDataDir? 1, size = 8, data = word[0] = 1000, 
system.mem_ctrls::access() Cmd: ReadExReq, DataDir: 2, CmdDir: 2, Size: 64, addr: 4340340, PC: 4765629, time: 647000
setDataFromBlock:: PC = 4765629,  addr = 4340340, sameCmdDataDir? 1, size = 64, data = word[0] = 0, word[1] = 0, word[2] = 0, word[3] = 0, word[4] = 0, word[5] = 0, word[6] = 0, word[7] = 0, 
writeDataToBlock:: PC = 4765629,  addr = 4345340, sameCmdDataDir? 1, size = 8, data = word[0] = 500, 
writeDataToBlock:: PC = 4765662,  addr = 4355170, sameCmdDataDir? 1, size = 8, data = word[0] = 48b7e3, 
system.mem_ctrls::access() Cmd: ReadExReq, DataDir: 2, CmdDir: 2, Size: 64, addr: 4350110, PC: 4583648, time: 653500
setDataFromBlock:: PC = 4583648,  addr = 4350110, sameCmdDataDir? 1, size = 64, data = word[0] = 0, word[1] = 0, word[2] = 0, word[3] = 0, word[4] = 0, word[5] = 0, word[6] = 0, word[7] = 0, 
writeDataToBlock:: PC = 4583648,  addr = 4355110, sameCmdDataDir? 1, size = 8, data = word[0] = 4d4f4a, 
writeDataToBlock:: PC = 4583653,  addr = 4355130, sameCmdDataDir? 1, size = 8, data = word[0] = 7fffffffedb8, 
writeDataToBlock:: PC = 4583658,  addr = 4355160, sameCmdDataDir? 1, size = 8, data = word[0] = 0, 
writeDataToBlock:: PC = 4583663,  addr = 4355120, sameCmdDataDir? 1, size = 8, data = word[0] = 7fffffffeda8, 
writeDataToBlock:: PC = 4583671,  addr = 4355140, sameCmdDataDir? 1, size = 8, data = word[0] = 7fffffffeb00, 
writeDataToBlock:: PC = 4583676,  addr = 4355150, sameCmdDataDir? 1, size = 8, data = word[0] = 7fffffffeb86, 
system.mem_ctrls::access() Cmd: ReadExReq, DataDir: 2, CmdDir: 2, Size: 64, addr: 4350070, PC: 4583685, time: 661500
setDataFromBlock:: PC = 4583685,  addr = 4350070, sameCmdDataDir? 1, size = 64, data = word[0] = 0, word[1] = 0, word[2] = 0, word[3] = 0, word[4] = 0, word[5] = 0, word[6] = 0, word[7] = 0, 
writeDataToBlock:: PC = 4583685,  addr = 4355070, sameCmdDataDir? 1, size = 8, data = word[0] = 45f10a, 
setDataFromBlock:: PC = 4699984,  addr = 3103545, sameCmdDataDir? 1, size = 1, data = word[0] = 4c, 
setDataFromBlock:: PC = 4699984,  addr = 3103546, sameCmdDataDir? 1, size = 1, data = word[0] = 44, 
setDataFromBlock:: PC = 4699984,  addr = 3103547, sameCmdDataDir? 1, size = 1, data = word[0] = 5f, 
setDataFromBlock:: PC = 4700016,  addr = 3103550, sameCmdDataDir? 1, size = 8, data = word[0] = 5f444c004e524157, 
setDataFromBlock:: PC = 4700200,  addr = 4355070, sameCmdDataDir? 1, size = 8, data = word[0] = 45f10a, 
setDataFromBlock:: PC = 4583690,  addr = 4336310, sameCmdDataDir? 1, size = 8, data = word[0] = 7fffffffedb8, 
setDataFromBlock:: PC = 4583744,  addr = 3103545, sameCmdDataDir? 1, size = 1, data = word[0] = 4c, 
setDataFromBlock:: PC = 4583750,  addr = 3103546, sameCmdDataDir? 1, size = 1, data = word[0] = 44, 
setDataFromBlock:: PC = 4583757,  addr = 4356670, sameCmdDataDir? 1, size = 8, data = word[0] = 0, 
setDataFromBlock:: PC = 4583760,  addr = 3103545, sameCmdDataDir? 1, size = 2, data = word[0] = 444c, 
setDataFromBlock:: PC = 4583707,  addr = 4355110, sameCmdDataDir? 1, size = 8, data = word[0] = 4d4f4a, 
setDataFromBlock:: PC = 4583712,  addr = 4355120, sameCmdDataDir? 1, size = 8, data = word[0] = 7fffffffeda8, 
setDataFromBlock:: PC = 4583717,  addr = 4355130, sameCmdDataDir? 1, size = 8, data = word[0] = 7fffffffedb8, 
setDataFromBlock:: PC = 4583722,  addr = 4355140, sameCmdDataDir? 1, size = 8, data = word[0] = 7fffffffeb00, 
setDataFromBlock:: PC = 4583727,  addr = 4355150, sameCmdDataDir? 1, size = 8, data = word[0] = 7fffffffeb86, 
setDataFromBlock:: PC = 4583732,  addr = 4355160, sameCmdDataDir? 1, size = 8, data = word[0] = 0, 
setDataFromBlock:: PC = 4583741,  addr = 4355170, sameCmdDataDir? 1, size = 8, data = word[0] = 48b7e3, 
system.mem_ctrls::access() Cmd: ReadSharedReq, DataDir: 2, CmdDir: 2, Size: 64, addr: 3240510, PC: 4765679, time: 741000
setDataFromBlock:: PC = 4765679,  addr = 3240510, sameCmdDataDir? 1, size = 64, data = word[0] = 63, word[1] = 5400000000, word[2] = 0, word[3] = 41, word[4] = 7200000000, word[5] = 0, word[6] = 4d4f4a, word[7] = 6225206125000100, 
setDataFromBlock:: PC = 4765679,  addr = 3247512, sameCmdDataDir? 1, size = 1, data = word[0] = 0, 
system.mem_ctrls::access() Cmd: ReadExReq, DataDir: 2, CmdDir: 2, Size: 64, addr: 4340430, PC: 4765688, time: 744500
setDataFromBlock:: PC = 4765688,  addr = 4340430, sameCmdDataDir? 1, size = 64, data = word[0] = 0, word[1] = 0, word[2] = 0, word[3] = 0, word[4] = 0, word[5] = 0, word[6] = 0, word[7] = 0, 
writeDataToBlock:: PC = 4765688,  addr = 4345434, sameCmdDataDir? 1, size = 4, data = word[0] = 0, 
writeDataToBlock:: PC = 4765694,  addr = 4355170, sameCmdDataDir? 1, size = 8, data = word[0] = 48b803, 
writeDataToBlock:: PC = 4583648,  addr = 4355110, sameCmdDataDir? 1, size = 8, data = word[0] = 4d4f4a, 
writeDataToBlock:: PC = 4583653,  addr = 4355130, sameCmdDataDir? 1, size = 8, data = word[0] = 7fffffffedb8, 
writeDataToBlock:: PC = 4583658,  addr = 4355160, sameCmdDataDir? 1, size = 8, data = word[0] = 0, 
writeDataToBlock:: PC = 4583663,  addr = 4355120, sameCmdDataDir? 1, size = 8, data = word[0] = 7fffffffeda8, 
writeDataToBlock:: PC = 4583671,  addr = 4355140, sameCmdDataDir? 1, size = 8, data = word[0] = 7fffffffeb00, 
writeDataToBlock:: PC = 4583676,  addr = 4355150, sameCmdDataDir? 1, size = 8, data = word[0] = 7fffffffeb86, 
writeDataToBlock:: PC = 4583685,  addr = 4355070, sameCmdDataDir? 1, size = 8, data = word[0] = 45f10a, 
setDataFromBlock:: PC = 4699984,  addr = 3103555, sameCmdDataDir? 1, size = 1, data = word[0] = 4c, 
setDataFromBlock:: PC = 4699984,  addr = 3103556, sameCmdDataDir? 1, size = 1, data = word[0] = 44, 
setDataFromBlock:: PC = 4699984,  addr = 3103557, sameCmdDataDir? 1, size = 1, data = word[0] = 5f, 
setDataFromBlock:: PC = 4700016,  addr = 3103560, sameCmdDataDir? 1, size = 8, data = word[0] = 5f5952415242494c, 
system.mem_ctrls::access() Cmd: ReadSharedReq, DataDir: 2, CmdDir: 2, Size: 64, addr: 3100570, PC: 4700042, time: 790500
setDataFromBlock:: PC = 4700042,  addr = 3100570, sameCmdDataDir? 1, size = 64, data = word[0] = 487bc8, word[1] = 487abc, word[2] = 48b5b0, word[3] = 5f444c0048544150, word[4] = 49002f2f342d5343, word[5] = 5343552f36343630, word[6] = 4040404, word[7] = 0, 
setDataFromBlock:: PC = 4700042,  addr = 3103570, sameCmdDataDir? 1, size = 8, data = word[0] = 5f444c0048544150, 
setDataFromBlock:: PC = 4700200,  addr = 4355070, sameCmdDataDir? 1, size = 8, data = word[0] = 45f10a, 
setDataFromBlock:: PC = 4583690,  addr = 4336310, sameCmdDataDir? 1, size = 8, data = word[0] = 7fffffffedb8, 
setDataFromBlock:: PC = 4583744,  addr = 3103555, sameCmdDataDir? 1, size = 1, data = word[0] = 4c, 
setDataFromBlock:: PC = 4583750,  addr = 3103556, sameCmdDataDir? 1, size = 1, data = word[0] = 44, 
setDataFromBlock:: PC = 4583757,  addr = 4356670, sameCmdDataDir? 1, size = 8, data = word[0] = 0, 
setDataFromBlock:: PC = 4583760,  addr = 3103555, sameCmdDataDir? 1, size = 2, data = word[0] = 444c, 
setDataFromBlock:: PC = 4583707,  addr = 4355110, sameCmdDataDir? 1, size = 8, data = word[0] = 4d4f4a, 
setDataFromBlock:: PC = 4583712,  addr = 4355120, sameCmdDataDir? 1, size = 8, data = word[0] = 7fffffffeda8, 
setDataFromBlock:: PC = 4583717,  addr = 4355130, sameCmdDataDir? 1, size = 8, data = word[0] = 7fffffffedb8, 
setDataFromBlock:: PC = 4583722,  addr = 4355140, sameCmdDataDir? 1, size = 8, data = word[0] = 7fffffffeb00, 
setDataFromBlock:: PC = 4583727,  addr = 4355150, sameCmdDataDir? 1, size = 8, data = word[0] = 7fffffffeb86, 
setDataFromBlock:: PC = 4583732,  addr = 4355160, sameCmdDataDir? 1, size = 8, data = word[0] = 0, 
setDataFromBlock:: PC = 4583741,  addr = 4355170, sameCmdDataDir? 1, size = 8, data = word[0] = 48b803, 
writeDataToBlock:: PC = 4765702,  addr = 4355170, sameCmdDataDir? 1, size = 8, data = word[0] = 48b80b, 
writeDataToBlock:: PC = 4883072,  addr = 4355160, sameCmdDataDir? 1, size = 8, data = word[0] = 7fffffffeda8, 
writeDataToBlock:: PC = 4883086,  addr = 4355150, sameCmdDataDir? 1, size = 8, data = word[0] = 0, 
writeDataToBlock:: PC = 4883088,  addr = 4355140, sameCmdDataDir? 1, size = 8, data = word[0] = 7fffffffeb86, 
writeDataToBlock:: PC = 4883090,  addr = 4355130, sameCmdDataDir? 1, size = 8, data = word[0] = 7fffffffeb00, 
writeDataToBlock:: PC = 4883092,  addr = 4355120, sameCmdDataDir? 1, size = 8, data = word[0] = 7fffffffedb8, 
writeDataToBlock:: PC = 4883094,  addr = 4355110, sameCmdDataDir? 1, size = 8, data = word[0] = 4d4f4a, 
system.mem_ctrls::access() Cmd: ReadSharedReq, DataDir: 2, CmdDir: 2, Size: 64, addr: 4340640, PC: 4883102, time: 855000
setDataFromBlock:: PC = 4883102,  addr = 4340640, sameCmdDataDir? 1, size = 64, data = word[0] = 0, word[1] = 0, word[2] = 0, word[3] = 0, word[4] = 0, word[5] = 0, word[6] = 0, word[7] = 0, 
setDataFromBlock:: PC = 4883102,  addr = 4345640, sameCmdDataDir? 1, size = 8, data = word[0] = 0, 
system.mem_ctrls::access() Cmd: ReadSharedReq, DataDir: 2, CmdDir: 2, Size: 64, addr: 4340560, PC: 4883109, time: 856500
setDataFromBlock:: PC = 4883109,  addr = 4340560, sameCmdDataDir? 1, size = 64, data = word[0] = 0, word[1] = 0, word[2] = 0, word[3] = 0, word[4] = 0, word[5] = 0, word[6] = 0, word[7] = 0, 
setDataFromBlock:: PC = 4883109,  addr = 4345560, sameCmdDataDir? 1, size = 8, data = word[0] = 0, 
writeDataToBlock:: PC = 4883116,  addr = 4355050, sameCmdDataDir? 1, size = 8, data = word[0] = 4a82b1, 
system.mem_ctrls::access() Cmd: ReadExReq, DataDir: 2, CmdDir: 2, Size: 64, addr: 4340310, PC: 4765552, time: 861500
setDataFromBlock:: PC = 4765552,  addr = 4340310, sameCmdDataDir? 1, size = 64, data = word[0] = 0, word[1] = 0, word[2] = 0, word[3] = 0, word[4] = 0, word[5] = 0, word[6] = 0, word[7] = 0, 
writeDataToBlock:: PC = 4765552,  addr = 4343310, sameCmdDataDir? 1, size = 8, data = word[0] = 0, 
system.mem_ctrls::access() Cmd: ReadExReq, DataDir: 2, CmdDir: 2, Size: 64, addr: 4340300, PC: 4765563, time: 863500
setDataFromBlock:: PC = 4765563,  addr = 4340300, sameCmdDataDir? 1, size = 64, data = word[0] = 0, word[1] = 0, word[2] = 0, word[3] = 0, word[4] = 0, word[5] = 0, word[6] = 0, word[7] = 0, 
writeDataToBlock:: PC = 4765563,  addr = 4343300, sameCmdDataDir? 1, size = 8, data = word[0] = 71b6b8, 
system.mem_ctrls::access() Cmd: ReadExReq, DataDir: 2, CmdDir: 2, Size: 64, addr: 4040570, PC: 4765579, time: 866000
setDataFromBlock:: PC = 4765579,  addr = 4040570, sameCmdDataDir? 1, size = 64, data = word[0] = 0, word[1] = 717770, word[2] = 411810, word[3] = 703b40, word[4] = 700380, word[5] = 4c0b5d, word[6] = 0, word[7] = 0, 
writeDataToBlock:: PC = 4765579,  addr = 4040570, sameCmdDataDir? 1, size = 8, data = word[0] = 1, 
setDataFromBlock:: PC = 4765586,  addr = 4355050, sameCmdDataDir? 1, size = 8, data = word[0] = 4a82b1, 
system.mem_ctrls::access() Cmd: ReadExReq, DataDir: 2, CmdDir: 2, Size: 64, addr: 4040560, PC: 4883126, time: 869500
setDataFromBlock:: PC = 4883126,  addr = 4040560, sameCmdDataDir? 1, size = 64, data = word[0] = 0, word[1] = 701220, word[2] = 702160, word[3] = 7011e0, word[4] = 6ff760, word[5] = 4c5af4, word[6] = 0, word[7] = 0, 
writeDataToBlock:: PC = 4883126,  addr = 4040560, sameCmdDataDir? 1, size = 8, data = word[0] = 71b6c0, 
writeDataToBlock:: PC = 4883133,  addr = 4355050, sameCmdDataDir? 1, size = 8, data = word[0] = 4a82c2, 
writeDataToBlock:: PC = 4683136,  addr = 4355040, sameCmdDataDir? 1, size = 8, data = word[0] = 7fffffffedb8, 
writeDataToBlock:: PC = 4683141,  addr = 4355020, sameCmdDataDir? 1, size = 8, data = word[0] = 0, 
system.mem_ctrls::access() Cmd: ReadExReq, DataDir: 2, CmdDir: 2, Size: 64, addr: 4350030, PC: 4683149, time: 875500
setDataFromBlock:: PC = 4683149,  addr = 4350030, sameCmdDataDir? 1, size = 64, data = word[0] = 0, word[1] = 0, word[2] = 0, word[3] = 0, word[4] = 0, word[5] = 0, word[6] = 0, word[7] = 38, 
writeDataToBlock:: PC = 4683149,  addr = 4355030, sameCmdDataDir? 1, size = 8, data = word[0] = 7fffffffea70, 
system.mem_ctrls::access() Cmd: ReadSharedReq, DataDir: 2, CmdDir: 2, Size: 64, addr: 4050650, PC: 4683158, time: 878000
setDataFromBlock:: PC = 4683158,  addr = 4050650, sameCmdDataDir? 1, size = 64, data = word[0] = 0, word[1] = 47a000, word[2] = 7fffffff00000001, word[3] = 0, word[4] = 0, word[5] = 0, word[6] = 0, word[7] = 0, 
setDataFromBlock:: PC = 4683158,  addr = 4051650, sameCmdDataDir? 1, size = 8, data = word[0] = 47a000, 
setDataFromBlock:: PC = 4683637,  addr = 4355050, sameCmdDataDir? 1, size = 8, data = word[0] = 4a82c2, 
setDataFromBlock:: PC = 4683642,  addr = 4355020, sameCmdDataDir? 1, size = 8, data = word[0] = 0, 
setDataFromBlock:: PC = 4683646,  addr = 4355030, sameCmdDataDir? 1, size = 8, data = word[0] = 7fffffffea70, 
setDataFromBlock:: PC = 4683651,  addr = 4355040, sameCmdDataDir? 1, size = 8, data = word[0] = 7fffffffedb8, 
writeDataToBlock:: PC = 4694016,  addr = 4355040, sameCmdDataDir? 1, size = 8, data = word[0] = 0, 
writeDataToBlock:: PC = 4694020,  addr = 4051650, sameCmdDataDir? 1, size = 8, data = word[0] = 0, 
writeDataToBlock:: PC = 4694031,  addr = 4355030, sameCmdDataDir? 1, size = 8, data = word[0] = 47a014, 
writeDataToBlock:: PC = 4690352,  addr = 4355020, sameCmdDataDir? 1, size = 8, data = word[0] = 7fffffffeb00, 
writeDataToBlock:: PC = 4690354,  addr = 4355010, sameCmdDataDir? 1, size = 8, data = word[0] = 7fffffffedb8, 
writeDataToBlock:: PC = 4690356,  addr = 4355000, sameCmdDataDir? 1, size = 8, data = word[0] = 7fffffffea70, 
[...]
setDataFromBlock:: PC = 4549337,  addr = 4355250, sameCmdDataDir? 1, size = 8, data = word[0] = 0, 
setDataFromBlock:: PC = 4549338,  addr = 4355260, sameCmdDataDir? 1, size = 8, data = word[0] = 456aa0, 
writeDataToBlock:: PC = 4976156,  addr = 4355250, sameCmdDataDir? 1, size = 8, data = word[0] = 4bee21, 
setDataFromBlock:: PC = 4194944,  addr = 4053740, sameCmdDataDir? 1, size = 1, data = word[0] = 0, 
writeDataToBlock:: PC = 4194953,  addr = 4355240, sameCmdDataDir? 1, size = 8, data = word[0] = 456aa0, 
writeDataToBlock:: PC = 4194957,  addr = 4355230, sameCmdDataDir? 1, size = 8, data = word[0] = 0, 
setDataFromBlock:: PC = 4194974,  addr = 4053750, sameCmdDataDir? 1, size = 8, data = word[0] = 0, 
writeDataToBlock:: PC = 4195004,  addr = 4053750, sameCmdDataDir? 1, size = 8, data = word[0] = 1, 
system.mem_ctrls::access() Cmd: ReadSharedReq, DataDir: 2, CmdDir: 2, Size: 64, addr: 3770670, PC: 4195011, time: 93130000
setDataFromBlock:: PC = 4195011,  addr = 3770670, sameCmdDataDir? 1, size = 64, data = word[0] = 0, word[1] = 0, word[2] = 4b7430, word[3] = 4c2257, word[4] = 4d841c, word[5] = 100000001, word[6] = 0, word[7] = 11, 
setDataFromBlock:: PC = 4195011,  addr = 3772670, sameCmdDataDir? 1, size = 8, data = word[0] = 4b7430, 
writeDataToBlock:: PC = 4195011,  addr = 4355210, sameCmdDataDir? 1, size = 8, data = word[0] = 4002ca, 
system.mem_ctrls::access() Cmd: ReadSharedReq, DataDir: 2, CmdDir: 2, Size: 64, addr: 4340370, PC: 4944948, time: 93134000
setDataFromBlock:: PC = 4944948,  addr = 4340370, sameCmdDataDir? 1, size = 64, data = word[0] = 0, word[1] = 0, word[2] = 0, word[3] = 0, word[4] = 0, word[5] = 0, word[6] = 0, word[7] = 0, 
setDataFromBlock:: PC = 4944948,  addr = 4344370, sameCmdDataDir? 1, size = 8, data = word[0] = 0, 
setDataFromBlock:: PC = 4944978,  addr = 4355210, sameCmdDataDir? 1, size = 8, data = word[0] = 4002ca, 
setDataFromBlock:: PC = 4195018,  addr = 4053750, sameCmdDataDir? 1, size = 8, data = word[0] = 1, 
writeDataToBlock:: PC = 4195030,  addr = 4355210, sameCmdDataDir? 1, size = 8, data = word[0] = 4002db, 
writeDataToBlock:: PC = 4194837,  addr = 4355200, sameCmdDataDir? 1, size = 8, data = word[0] = 7fffffffeaa0, 
setDataFromBlock:: PC = 4194853,  addr = 4355200, sameCmdDataDir? 1, size = 8, data = word[0] = 7fffffffeaa0, 
setDataFromBlock:: PC = 4194854,  addr = 4355210, sameCmdDataDir? 1, size = 8, data = word[0] = 4002db, 
writeDataToBlock:: PC = 4195050,  addr = 4355210, sameCmdDataDir? 1, size = 8, data = word[0] = 4002ef, 
writeDataToBlock:: PC = 4545904,  addr = 4355200, sameCmdDataDir? 1, size = 8, data = word[0] = 0, 
writeDataToBlock:: PC = 4545909,  addr = 4355170, sameCmdDataDir? 1, size = 8, data = word[0] = 7fffffffeaa0, 
writeDataToBlock:: PC = 4545913,  addr = 4355160, sameCmdDataDir? 1, size = 8, data = word[0] = 1, 
setDataFromBlock:: PC = 4545920,  addr = 3310030, sameCmdDataDir? 1, size = 64, data = word[0] = 0, word[1] = 0, word[2] = 4b0b22, word[3] = 4b0adf, word[4] = 4b751e, word[5] = 6f2e756e672e7777, word[6] = 7325203a74696e69, word[7] = 1c, 
setDataFromBlock:: PC = 4545920,  addr = 3317030, sameCmdDataDir? 1, size = 4, data = word[0] = 1c, 
setDataFromBlock:: PC = 4545930,  addr = 4043740, sameCmdDataDir? 1, size = 8, data = word[0] = 0, 
setDataFromBlock:: PC = 4545954,  addr = 4317420, sameCmdDataDir? 1, size = 8, data = word[0] = 704800, 
setDataFromBlock:: PC = 4545966,  addr = 4054030, sameCmdDataDir? 1, size = 8, data = word[0] = 4d9e18, 
setDataFromBlock:: PC = 4546066,  addr = 4054050, sameCmdDataDir? 1, size = 8, data = word[0] = 0, 
writeDataToBlock:: PC = 4546070,  addr = 4317420, sameCmdDataDir? 1, size = 8, data = word[0] = 0, 
setDataFromBlock:: PC = 4546098,  addr = 4355160, sameCmdDataDir? 1, size = 8, data = word[0] = 1, 
setDataFromBlock:: PC = 4546099,  addr = 4355170, sameCmdDataDir? 1, size = 8, data = word[0] = 7fffffffeaa0, 
setDataFromBlock:: PC = 4546100,  addr = 4355200, sameCmdDataDir? 1, size = 8, data = word[0] = 0, 
setDataFromBlock:: PC = 4546102,  addr = 4355210, sameCmdDataDir? 1, size = 8, data = word[0] = 4002ef, 
writeDataToBlock:: PC = 4195055,  addr = 4053740, sameCmdDataDir? 1, size = 1, data = word[0] = 1, 
setDataFromBlock:: PC = 4195066,  addr = 4355230, sameCmdDataDir? 1, size = 8, data = word[0] = 0, 
setDataFromBlock:: PC = 4195067,  addr = 4355240, sameCmdDataDir? 1, size = 8, data = word[0] = 456aa0, 
setDataFromBlock:: PC = 4195068,  addr = 4355250, sameCmdDataDir? 1, size = 8, data = word[0] = 4bee21, 
setDataFromBlock:: PC = 4976165,  addr = 4355270, sameCmdDataDir? 1, size = 8, data = word[0] = 45f2ee, 
setDataFromBlock:: PC = 4584126,  addr = 4046270, sameCmdDataDir? 1, size = 8, data = word[0] = 719e80, 
setDataFromBlock:: PC = 4583968,  addr = 4327210, sameCmdDataDir? 1, size = 8, data = word[0] = 0, 
setDataFromBlock:: PC = 4584035,  addr = 4327200, sameCmdDataDir? 1, size = 8, data = word[0] = 0, 
writeDataToBlock:: PC = 4584041,  addr = 4046270, sameCmdDataDir? 1, size = 8, data = word[0] = 0, 
system.mem_ctrls::access() Cmd: ReadSharedReq, DataDir: 2, CmdDir: 2, Size: 64, addr: 3310010, PC: 4584072, time: 93229000
setDataFromBlock:: PC = 4584072,  addr = 3310010, sameCmdDataDir? 1, size = 64, data = word[0] = 0, word[1] = 685f6e65706f5f6c, word[2] = 4b0b22, word[3] = 4b0adf, word[4] = 4b7590, word[5] = 3c206e6920646562, word[6] = a00474e494b4e49, word[7] = 472400, 
setDataFromBlock:: PC = 4584072,  addr = 3317010, sameCmdDataDir? 1, size = 8, data = word[0] = 472400, 
writeDataToBlock:: PC = 4584072,  addr = 4355270, sameCmdDataDir? 1, size = 8, data = word[0] = 45f28b, 
writeDataToBlock:: PC = 4662272,  addr = 4355260, sameCmdDataDir? 1, size = 8, data = word[0] = 7fffffffeb86, 
writeDataToBlock:: PC = 4662276,  addr = 4355250, sameCmdDataDir? 1, size = 8, data = word[0] = 7fffffffeb00, 
writeDataToBlock:: PC = 4662278,  addr = 4355240, sameCmdDataDir? 1, size = 8, data = word[0] = 0, 
writeDataToBlock:: PC = 4662280,  addr = 4355230, sameCmdDataDir? 1, size = 8, data = word[0] = 4d9e08, 
writeDataToBlock:: PC = 4662281,  addr = 4355220, sameCmdDataDir? 1, size = 8, data = word[0] = 0, 
writeDataToBlock:: PC = 4662282,  addr = 4355210, sameCmdDataDir? 1, size = 8, data = word[0] = 47240f, 
writeDataToBlock:: PC = 4661504,  addr = 4355200, sameCmdDataDir? 1, size = 8, data = word[0] = 0, 
writeDataToBlock:: PC = 4661511,  addr = 4355170, sameCmdDataDir? 1, size = 8, data = word[0] = 7fffffffeb86, 
writeDataToBlock:: PC = 4661516,  addr = 4355160, sameCmdDataDir? 1, size = 8, data = word[0] = 7fffffffeb00, 
writeDataToBlock:: PC = 4661518,  addr = 4355150, sameCmdDataDir? 1, size = 8, data = word[0] = 0, 
writeDataToBlock:: PC = 4661520,  addr = 4355140, sameCmdDataDir? 1, size = 8, data = word[0] = 4d9e08, 
writeDataToBlock:: PC = 4661521,  addr = 4355130, sameCmdDataDir? 1, size = 8, data = word[0] = 0, 
writeDataToBlock:: PC = 4661544,  addr = 4355060, sameCmdDataDir? 1, size = 8, data = word[0] = 4712c0, 
writeDataToBlock:: PC = 4661552,  addr = 4355070, sameCmdDataDir? 1, size = 8, data = word[0] = 0, 
setDataFromBlock:: PC = 4661642,  addr = 4047540, sameCmdDataDir? 1, size = 8, data = word[0] = 703e80, 
setDataFromBlock:: PC = 4661649,  addr = 4331240, sameCmdDataDir? 1, size = 4, data = word[0] = 0, 
setDataFromBlock:: PC = 4662047,  addr = 4047500, sameCmdDataDir? 1, size = 4, data = word[0] = 0, 
writeDataToBlock:: PC = 4662053,  addr = 4331250, sameCmdDataDir? 1, size = 8, data = word[0] = 703e80, 
setDataFromBlock:: PC = 4662136,  addr = 4047240, sameCmdDataDir? 1, size = 8, data = word[0] = 0, 
setDataFromBlock:: PC = 4662140,  addr = 4047250, sameCmdDataDir? 1, size = 8, data = word[0] = 0, 
writeDataToBlock:: PC = 4662113,  addr = 4331250, sameCmdDataDir? 1, size = 8, data = word[0] = 0, 
setDataFromBlock:: PC = 4662126,  addr = 4047350, sameCmdDataDir? 1, size = 8, data = word[0] = 703da0, 
setDataFromBlock:: PC = 4662047,  addr = 4047140, sameCmdDataDir? 1, size = 4, data = word[0] = ffffffff, 
writeDataToBlock:: PC = 4662053,  addr = 4331250, sameCmdDataDir? 1, size = 8, data = word[0] = 703da0, 
setDataFromBlock:: PC = 4662136,  addr = 4046700, sameCmdDataDir? 1, size = 8, data = word[0] = 7ffff7ffd000, 
setDataFromBlock:: PC = 4662140,  addr = 4046710, sameCmdDataDir? 1, size = 8, data = word[0] = 7ffff7ffd000, 
writeDataToBlock:: PC = 4662113,  addr = 4331250, sameCmdDataDir? 1, size = 8, data = word[0] = 0, 
setDataFromBlock:: PC = 4662126,  addr = 4047010, sameCmdDataDir? 1, size = 8, data = word[0] = 703cc0, 
setDataFromBlock:: PC = 4662047,  addr = 4046600, sameCmdDataDir? 1, size = 4, data = word[0] = 0, 
writeDataToBlock:: PC = 4662053,  addr = 4331250, sameCmdDataDir? 1, size = 8, data = word[0] = 703cc0, 
setDataFromBlock:: PC = 4662136,  addr = 4046340, sameCmdDataDir? 1, size = 8, data = word[0] = 0, 
setDataFromBlock:: PC = 4662140,  addr = 4046350, sameCmdDataDir? 1, size = 8, data = word[0] = 0, 
writeDataToBlock:: PC = 4662113,  addr = 4331250, sameCmdDataDir? 1, size = 8, data = word[0] = 0, 
setDataFromBlock:: PC = 4662126,  addr = 4046450, sameCmdDataDir? 1, size = 8, data = word[0] = 0, 
setDataFromBlock:: PC = 4662014,  addr = 4355130, sameCmdDataDir? 1, size = 8, data = word[0] = 0, 
setDataFromBlock:: PC = 4662015,  addr = 4355140, sameCmdDataDir? 1, size = 8, data = word[0] = 4d9e08, 
setDataFromBlock:: PC = 4662016,  addr = 4355150, sameCmdDataDir? 1, size = 8, data = word[0] = 0, 
setDataFromBlock:: PC = 4662018,  addr = 4355160, sameCmdDataDir? 1, size = 8, data = word[0] = 7fffffffeb00, 
setDataFromBlock:: PC = 4662020,  addr = 4355170, sameCmdDataDir? 1, size = 8, data = word[0] = 7fffffffeb86, 
setDataFromBlock:: PC = 4662022,  addr = 4355200, sameCmdDataDir? 1, size = 8, data = word[0] = 0, 
setDataFromBlock:: PC = 4662024,  addr = 4355210, sameCmdDataDir? 1, size = 8, data = word[0] = 47240f, 
setDataFromBlock:: PC = 4662287,  addr = 4047540, sameCmdDataDir? 1, size = 8, data = word[0] = 703e80, 
setDataFromBlock:: PC = 4662311,  addr = 4374160, sameCmdDataDir? 1, size = 8, data = word[0] = 71c860, 
setDataFromBlock:: PC = 4662320,  addr = 4047200, sameCmdDataDir? 1, size = 4, data = word[0] = fbad2086, 
writeDataToBlock:: PC = 4662464,  addr = 4047500, sameCmdDataDir? 1, size = 4, data = word[0] = ffffffff, 
setDataFromBlock:: PC = 4662474,  addr = 4047350, sameCmdDataDir? 1, size = 8, data = word[0] = 703da0, 
setDataFromBlock:: PC = 4662320,  addr = 4046640, sameCmdDataDir? 1, size = 4, data = word[0] = fbad2884, 
setDataFromBlock:: PC = 4662345,  addr = 4047140, sameCmdDataDir? 1, size = 4, data = word[0] = ffffffff, 
setDataFromBlock:: PC = 4662355,  addr = 4047050, sameCmdDataDir? 1, size = 8, data = word[0] = 71a2d0, 
setDataFromBlock:: PC = 4662362,  addr = 4331330, sameCmdDataDir? 1, size = 8, data = word[0] = 0, 
setDataFromBlock:: PC = 4662375,  addr = 4345310, sameCmdDataDir? 1, size = 4, data = word[0] = 0, 
setDataFromBlock:: PC = 4662390,  addr = 4331320, sameCmdDataDir? 1, size = 4, data = word[0] = 0, 
writeDataToBlock:: PC = 4662390,  addr = 4331320, sameCmdDataDir? 1, size = 4, data = word[0] = 1, 
setDataFromBlock:: PC = 4662397,  addr = 4047050, sameCmdDataDir? 1, size = 8, data = word[0] = 71a2d0, 
writeDataToBlock:: PC = 4662404,  addr = 4331330, sameCmdDataDir? 1, size = 8, data = word[0] = 71c860, 
writeDataToBlock:: PC = 4662408,  addr = 4331324, sameCmdDataDir? 1, size = 4, data = word[0] = 1, 
setDataFromBlock:: PC = 4662418,  addr = 4331260, sameCmdDataDir? 1, size = 1, data = word[0] = 0, 
setDataFromBlock:: PC = 4662427,  addr = 4046640, sameCmdDataDir? 1, size = 4, data = word[0] = fbad2884, 
setDataFromBlock:: PC = 4662611,  addr = 4046730, sameCmdDataDir? 1, size = 8, data = word[0] = 7ffff7ffd000, 
writeDataToBlock:: PC = 4662615,  addr = 4046640, sameCmdDataDir? 1, size = 4, data = word[0] = fbad2885, 
setDataFromBlock:: PC = 4662617,  addr = 4331270, sameCmdDataDir? 1, size = 8, data = word[0] = 0, 
writeDataToBlock:: PC = 4662624,  addr = 4047120, sameCmdDataDir? 1, size = 8, data = word[0] = 7ffff7ffd000, 
writeDataToBlock:: PC = 4662631,  addr = 4047110, sameCmdDataDir? 1, size = 8, data = word[0] = 0, 
setDataFromBlock:: PC = 4662638,  addr = 4046740, sameCmdDataDir? 1, size = 8, data = word[0] = 7ffff7fff000, 
writeDataToBlock:: PC = 4662642,  addr = 4331270, sameCmdDataDir? 1, size = 8, data = word[0] = 703da0, 
writeDataToBlock:: PC = 4662652,  addr = 4047130, sameCmdDataDir? 1, size = 8, data = word[0] = 2000, 
setDataFromBlock:: PC = 4662437,  addr = 4047170, sameCmdDataDir? 1, size = 8, data = word[0] = 4c56e0, 
system.mem_ctrls::access() Cmd: ReadSharedReq, DataDir: 2, CmdDir: 2, Size: 64, addr: 3050470, PC: 4662451, time: 93400500
setDataFromBlock:: PC = 4662451,  addr = 3050470, sameCmdDataDir? 1, size = 64, data = word[0] = 606060606060606, word[1] = 46fc20, word[2] = 0, word[3] = 470360, word[4] = 473dd0, word[5] = 3d20202020207365, word[6] = 4792a5, word[7] = 47c4be, 
setDataFromBlock:: PC = 4662451,  addr = 3053470, sameCmdDataDir? 1, size = 8, data = word[0] = 470360, 
writeDataToBlock:: PC = 4662451,  addr = 4355210, sameCmdDataDir? 1, size = 8, data = word[0] = 4724b6, 
writeDataToBlock:: PC = 4653920,  addr = 4355200, sameCmdDataDir? 1, size = 8, data = word[0] = 703da0, 
writeDataToBlock:: PC = 4653924,  addr = 4355170, sameCmdDataDir? 1, size = 8, data = word[0] = 470369, 
writeDataToBlock:: PC = 4664496,  addr = 4355140, sameCmdDataDir? 1, size = 8, data = word[0] = 703da0, 
writeDataToBlock:: PC = 4664501,  addr = 4355150, sameCmdDataDir? 1, size = 8, data = word[0] = 1, 
writeDataToBlock:: PC = 4664509,  addr = 4355160, sameCmdDataDir? 1, size = 8, data = word[0] = 71c860, 
setDataFromBlock:: PC = 4664518,  addr = 4047170, sameCmdDataDir? 1, size = 8, data = word[0] = 4c56e0, 
setDataFromBlock:: PC = 4664531,  addr = 3053500, sameCmdDataDir? 1, size = 8, data = word[0] = 4706e0, 
writeDataToBlock:: PC = 4664531,  addr = 4355130, sameCmdDataDir? 1, size = 8, data = word[0] = 472cd6, 
writeDataToBlock:: PC = 4654816,  addr = 4355120, sameCmdDataDir? 1, size = 8, data = word[0] = 703da0, 
setDataFromBlock:: PC = 4654817,  addr = 4046710, sameCmdDataDir? 1, size = 8, data = word[0] = 7ffff7ffd000, 
setDataFromBlock:: PC = 4654824,  addr = 4046700, sameCmdDataDir? 1, size = 8, data = word[0] = 7ffff7ffd000, 
setDataFromBlock:: PC = 4654833,  addr = 4046650, sameCmdDataDir? 1, size = 8, data = word[0] = 7ffff7ffd000, 
setDataFromBlock:: PC = 4654837,  addr = 4046660, sameCmdDataDir? 1, size = 8, data = word[0] = 7ffff7ffd000, 
writeDataToBlock:: PC = 4654843,  addr = 4047060, sameCmdDataDir? 1, size = 8, data = word[0] = ffffffffffffffff, 
setDataFromBlock:: PC = 4654856,  addr = 4355120, sameCmdDataDir? 1, size = 8, data = word[0] = 703da0, 
setDataFromBlock:: PC = 4654857,  addr = 4355130, sameCmdDataDir? 1, size = 8, data = word[0] = 472cd6, 
setDataFromBlock:: PC = 4664553,  addr = 4046640, sameCmdDataDir? 1, size = 4, data = word[0] = fbad2885, 
setDataFromBlock:: PC = 4664555,  addr = 4046730, sameCmdDataDir? 1, size = 8, data = word[0] = 7ffff7ffd000, 
writeDataToBlock:: PC = 4664572,  addr = 4046640, sameCmdDataDir? 1, size = 4, data = word[0] = fbad2887, 
setDataFromBlock:: PC = 4664584,  addr = 4046640, sameCmdDataDir? 1, size = 4, data = word[0] = fbad2887, 
writeDataToBlock:: PC = 4664584,  addr = 4046640, sameCmdDataDir? 1, size = 4, data = word[0] = fbad2887, 
writeDataToBlock:: PC = 4664587,  addr = 4046730, sameCmdDataDir? 1, size = 8, data = word[0] = 703e23, 
writeDataToBlock:: PC = 4664595,  addr = 4046740, sameCmdDataDir? 1, size = 8, data = word[0] = 703e24, 
writeDataToBlock:: PC = 4664599,  addr = 4046720, sameCmdDataDir? 1, size = 8, data = word[0] = 0, 
writeDataToBlock:: PC = 4664607,  addr = 4046710, sameCmdDataDir? 1, size = 8, data = word[0] = 0, 
writeDataToBlock:: PC = 4664615,  addr = 4046700, sameCmdDataDir? 1, size = 8, data = word[0] = 0, 
writeDataToBlock:: PC = 4664623,  addr = 4046660, sameCmdDataDir? 1, size = 8, data = word[0] = 0, 
writeDataToBlock:: PC = 4664631,  addr = 4046650, sameCmdDataDir? 1, size = 8, data = word[0] = 0, 
writeDataToBlock:: PC = 4664639,  addr = 4046670, sameCmdDataDir? 1, size = 8, data = word[0] = 0, 
setDataFromBlock:: PC = 4664650,  addr = 4355150, sameCmdDataDir? 1, size = 8, data = word[0] = 1, 
setDataFromBlock:: PC = 4664655,  addr = 4355140, sameCmdDataDir? 1, size = 8, data = word[0] = 703da0, 
setDataFromBlock:: PC = 4664659,  addr = 4355160, sameCmdDataDir? 1, size = 8, data = word[0] = 71c860, 
setDataFromBlock:: PC = 4664668,  addr = 4355170, sameCmdDataDir? 1, size = 8, data = word[0] = 470369, 
setDataFromBlock:: PC = 4653934,  addr = 4046730, sameCmdDataDir? 1, size = 8, data = word[0] = 703e23, 
writeDataToBlock:: PC = 4653938,  addr = 4046720, sameCmdDataDir? 1, size = 8, data = word[0] = 703e23, 
writeDataToBlock:: PC = 4653942,  addr = 4046710, sameCmdDataDir? 1, size = 8, data = word[0] = 703e23, 
writeDataToBlock:: PC = 4653946,  addr = 4046700, sameCmdDataDir? 1, size = 8, data = word[0] = 703e23, 
writeDataToBlock:: PC = 4653950,  addr = 4046670, sameCmdDataDir? 1, size = 8, data = word[0] = 703e23, 
writeDataToBlock:: PC = 4653954,  addr = 4046650, sameCmdDataDir? 1, size = 8, data = word[0] = 703e23, 
writeDataToBlock:: PC = 4653958,  addr = 4046660, sameCmdDataDir? 1, size = 8, data = word[0] = 703e23, 
setDataFromBlock:: PC = 4653965,  addr = 4355200, sameCmdDataDir? 1, size = 8, data = word[0] = 703da0, 
setDataFromBlock:: PC = 4653966,  addr = 4355210, sameCmdDataDir? 1, size = 8, data = word[0] = 4724b6, 
setDataFromBlock:: PC = 4662672,  addr = 4047050, sameCmdDataDir? 1, size = 8, data = word[0] = 71a2d0, 
setDataFromBlock:: PC = 4662679,  addr = 4331324, sameCmdDataDir? 1, size = 4, data = word[0] = 1, 
writeDataToBlock:: PC = 4662687,  addr = 4331324, sameCmdDataDir? 1, size = 4, data = word[0] = 0, 
writeDataToBlock:: PC = 4662696,  addr = 4331330, sameCmdDataDir? 1, size = 8, data = word[0] = 0, 
setDataFromBlock:: PC = 4662704,  addr = 4345310, sameCmdDataDir? 1, size = 4, data = word[0] = 0, 
setDataFromBlock:: PC = 4662724,  addr = 4331320, sameCmdDataDir? 1, size = 4, data = word[0] = 1, 
writeDataToBlock:: PC = 4662724,  addr = 4331320, sameCmdDataDir? 1, size = 4, data = word[0] = 0, 
writeDataToBlock:: PC = 4662464,  addr = 4047140, sameCmdDataDir? 1, size = 4, data = word[0] = ffffffff, 
setDataFromBlock:: PC = 4662474,  addr = 4047010, sameCmdDataDir? 1, size = 8, data = word[0] = 703cc0, 
system.mem_ctrls::access() Cmd: ReadSharedReq, DataDir: 2, CmdDir: 2, Size: 64, addr: 4040300, PC: 4662320, time: 93496500
setDataFromBlock:: PC = 4662320,  addr = 4040300, sameCmdDataDir? 1, size = 64, data = word[0] = 18, word[1] = 4113c0, word[2] = 700ec0, word[3] = 7176a8, word[4] = 702b40, word[5] = 4c0b7c, word[6] = fbad2088, word[7] = 0, 
setDataFromBlock:: PC = 4662320,  addr = 4046300, sameCmdDataDir? 1, size = 4, data = word[0] = fbad2088, 
writeDataToBlock:: PC = 4662464,  addr = 4046600, sameCmdDataDir? 1, size = 4, data = word[0] = ffffffff, 
setDataFromBlock:: PC = 4662474,  addr = 4046450, sameCmdDataDir? 1, size = 8, data = word[0] = 0, 
setDataFromBlock:: PC = 4662487,  addr = 4355220, sameCmdDataDir? 1, size = 8, data = word[0] = 0, 
setDataFromBlock:: PC = 4662488,  addr = 4355230, sameCmdDataDir? 1, size = 8, data = word[0] = 4d9e08, 
setDataFromBlock:: PC = 4662489,  addr = 4355240, sameCmdDataDir? 1, size = 8, data = word[0] = 0, 
setDataFromBlock:: PC = 4662494,  addr = 4355250, sameCmdDataDir? 1, size = 8, data = word[0] = 7fffffffeb00, 
setDataFromBlock:: PC = 4662496,  addr = 4355260, sameCmdDataDir? 1, size = 8, data = word[0] = 7fffffffeb86, 
setDataFromBlock:: PC = 4662498,  addr = 4355270, sameCmdDataDir? 1, size = 8, data = word[0] = 45f28b, 
writeDataToBlock:: PC = 4584090,  addr = 4355270, sameCmdDataDir? 1, size = 8, data = word[0] = 45f29f, 
Exiting @ tick 93531000 because target called exit()
