gem5 Simulator System.  http://gem5.org
gem5 is copyrighted software; use the --copyright option for details.

gem5 compiled Mar 28 2017 16:10:33
gem5 started Mar 28 2017 16:12:32
gem5 executing on shai.cse.psu.edu, pid 31790
command line: /home/mdl/mjl5868/GEM5/Mem2D/New_Version/2dmem_v0_1_addaddrbit/V0_1_AddAddrBit/gem5/build/X86/gem5.fast --redirect-stdout --stdout-file=build_test_Mar28_2017.gemout --redirect-stderr --stderr-file=build_test_Mar28_2017.gemerr --stats-file=build_test_Mar28_2017.stats /home/mdl/mjl5868/GEM5/Mem2D/New_Version/2dmem_v0_1_addaddrbit/V0_1_AddAddrBit/gem5/configs/example/se.py --output=build_test_Mar28_2017.appout --errout=build_test_Mar28_2017.apperr -c '/home/mdl/mjl5868/GEM5/Mem2D/New_Version/Original/Vectorization test/test-bin' --caches --l2cache --cpu-type=detailed

Global frequency set at 1000000000000 ticks per second
**** REAL SIMULATION ****
info: Entering event queue @ 0.  Starting simulation...
recvTimingReq: hasPC? 1, PC = 4199171, hasContextId? 1, contextID = 0, MemCmd: ReadReq, CmdDir: 1
recvTimingReq: hasPC? 1, PC = 4199179, hasContextId? 1, contextID = 0, MemCmd: WriteReq, CmdDir: 1
recvTimingReq: hasPC? 1, PC = 4199180, hasContextId? 1, contextID = 0, MemCmd: WriteReq, CmdDir: 1
recvTimingReq: hasPC? 1, PC = 4199202, hasContextId? 1, contextID = 0, MemCmd: WriteReq, CmdDir: 1
recvTimingReq: hasPC? 1, PC = 4807904, hasContextId? 1, contextID = 0, MemCmd: WriteReq, CmdDir: 1
recvTimingReq: hasPC? 1, PC = 4807914, hasContextId? 1, contextID = 0, MemCmd: WriteReq, CmdDir: 1
recvTimingReq: hasPC? 1, PC = 4807985, hasContextId? 1, contextID = 0, MemCmd: ReadReq, CmdDir: 1
recvTimingReq: hasPC? 1, PC = 4807919, hasContextId? 1, contextID = 0, MemCmd: WriteReq, CmdDir: 1
recvTimingReq: hasPC? 1, PC = 4807924, hasContextId? 1, contextID = 0, MemCmd: WriteReq, CmdDir: 1
recvTimingReq: hasPC? 1, PC = 4807925, hasContextId? 1, contextID = 0, MemCmd: WriteReq, CmdDir: 1
recvTimingReq: hasPC? 1, PC = 4807936, hasContextId? 1, contextID = 0, MemCmd: WriteReq, CmdDir: 1
recvTimingReq: hasPC? 1, PC = 4807941, hasContextId? 1, contextID = 0, MemCmd: WriteReq, CmdDir: 1
recvTimingReq: hasPC? 1, PC = 4807945, hasContextId? 1, contextID = 0, MemCmd: WriteReq, CmdDir: 1
recvTimingReq: hasPC? 1, PC = 4807975, hasContextId? 1, contextID = 0, MemCmd: ReadReq, CmdDir: 1
recvTimingReq: hasPC? 1, PC = 4807980, hasContextId? 1, contextID = 0, MemCmd: ReadReq, CmdDir: 1
recvTimingReq: hasPC? 1, PC = 4807985, hasContextId? 1, contextID = 0, MemCmd: ReadReq, CmdDir: 1
recvTimingReq: hasPC? 1, PC = 4808032, hasContextId? 1, contextID = 0, MemCmd: ReadReq, CmdDir: 1
recvTimingReq: hasPC? 1, PC = 4807969, hasContextId? 1, contextID = 0, MemCmd: WriteReq, CmdDir: 1
recvTimingReq: hasPC? 1, PC = 4808020, hasContextId? 1, contextID = 0, MemCmd: ReadReq, CmdDir: 1
recvTimingReq: hasPC? 1, PC = 4807998, hasContextId? 1, contextID = 0, MemCmd: WriteReq, CmdDir: 1
recvTimingReq: hasPC? 1, PC = 5170448, hasContextId? 1, contextID = 0, MemCmd: ReadReq, CmdDir: 1
recvTimingReq: hasPC? 1, PC = 5170469, hasContextId? 1, contextID = 0, MemCmd: ReadReq, CmdDir: 1
recvTimingReq: hasPC? 1, PC = 5170478, hasContextId? 1, contextID = 0, MemCmd: ReadReq, CmdDir: 1
recvTimingReq: hasPC? 1, PC = 5170485, hasContextId? 1, contextID = 0, MemCmd: ReadReq, CmdDir: 1
recvTimingReq: hasPC? 1, PC = 4808005, hasContextId? 1, contextID = 0, MemCmd: WriteReq, CmdDir: 1
recvTimingReq: hasPC? 1, PC = 5170496, hasContextId? 1, contextID = 0, MemCmd: ReadReq, CmdDir: 1
recvTimingReq: hasPC? 1, PC = 5170503, hasContextId? 1, contextID = 0, MemCmd: ReadReq, CmdDir: 1
recvTimingReq: hasPC? 1, PC = 5170510, hasContextId? 1, contextID = 0, MemCmd: ReadReq, CmdDir: 1
recvTimingReq: hasPC? 1, PC = 5170519, hasContextId? 1, contextID = 0, MemCmd: ReadReq, CmdDir: 1
recvTimingReq: hasPC? 1, PC = 5170526, hasContextId? 1, contextID = 0, MemCmd: ReadReq, CmdDir: 1
recvTimingReq: hasPC? 1, PC = 5170535, hasContextId? 1, contextID = 0, MemCmd: ReadReq, CmdDir: 1
recvTimingReq: hasPC? 1, PC = 5170543, hasContextId? 1, contextID = 0, MemCmd: ReadReq, CmdDir: 1
recvTimingReq: hasPC? 1, PC = 5170551, hasContextId? 1, contextID = 0, MemCmd: ReadReq, CmdDir: 1
recvTimingReq: hasPC? 1, PC = 5170503, hasContextId? 1, contextID = 0, MemCmd: ReadReq, CmdDir: 1
recvTimingReq: hasPC? 1, PC = 5170510, hasContextId? 1, contextID = 0, MemCmd: ReadReq, CmdDir: 1
recvTimingReq: hasPC? 1, PC = 5170519, hasContextId? 1, contextID = 0, MemCmd: ReadReq, CmdDir: 1
recvTimingReq: hasPC? 1, PC = 5170526, hasContextId? 1, contextID = 0, MemCmd: ReadReq, CmdDir: 1
recvTimingReq: hasPC? 1, PC = 5170535, hasContextId? 1, contextID = 0, MemCmd: ReadReq, CmdDir: 1
recvTimingReq: hasPC? 1, PC = 5170543, hasContextId? 1, contextID = 0, MemCmd: ReadReq, CmdDir: 1
recvTimingReq: hasPC? 1, PC = 5170551, hasContextId? 1, contextID = 0, MemCmd: ReadReq, CmdDir: 1
recvTimingReq: hasPC? 1, PC = 5170526, hasContextId? 1, contextID = 0, MemCmd: ReadReq, CmdDir: 1
recvTimingReq: hasPC? 1, PC = 5170535, hasContextId? 1, contextID = 0, MemCmd: ReadReq, CmdDir: 1
recvTimingReq: hasPC? 1, PC = 5170543, hasContextId? 1, contextID = 0, MemCmd: ReadReq, CmdDir: 1
recvTimingReq: hasPC? 1, PC = 5170551, hasContextId? 1, contextID = 0, MemCmd: ReadReq, CmdDir: 1
recvTimingReq: hasPC? 1, PC = 5170535, hasContextId? 1, contextID = 0, MemCmd: ReadReq, CmdDir: 1
recvTimingReq: hasPC? 1, PC = 5170543, hasContextId? 1, contextID = 0, MemCmd: ReadReq, CmdDir: 1
recvTimingReq: hasPC? 1, PC = 5170551, hasContextId? 1, contextID = 0, MemCmd: ReadReq, CmdDir: 1
recvTimingReq: hasPC? 1, PC = 4808027, hasContextId? 1, contextID = 0, MemCmd: WriteReq, CmdDir: 1
recvTimingReq: hasPC? 1, PC = 5170592, hasContextId? 1, contextID = 0, MemCmd: ReadReq, CmdDir: 1
recvTimingReq: hasPC? 1, PC = 5170578, hasContextId? 1, contextID = 0, MemCmd: ReadReq, CmdDir: 1
recvTimingReq: hasPC? 1, PC = 5170604, hasContextId? 1, contextID = 0, MemCmd: ReadReq, CmdDir: 1
recvTimingReq: hasPC? 1, PC = 4808027, hasContextId? 1, contextID = 0, MemCmd: WriteReq, CmdDir: 1
recvTimingReq: hasPC? 1, PC = 5170543, hasContextId? 1, contextID = 0, MemCmd: ReadReq, CmdDir: 1
recvTimingReq: hasPC? 1, PC = 5170551, hasContextId? 1, contextID = 0, MemCmd: ReadReq, CmdDir: 1
recvTimingReq: hasPC? 1, PC = 5170578, hasContextId? 1, contextID = 0, MemCmd: ReadReq, CmdDir: 1
recvTimingReq: hasPC? 1, PC = 5170592, hasContextId? 1, contextID = 0, MemCmd: ReadReq, CmdDir: 1
recvTimingReq: hasPC? 1, PC = 5170604, hasContextId? 1, contextID = 0, MemCmd: ReadReq, CmdDir: 1
recvTimingReq: hasPC? 1, PC = 5170451, hasContextId? 1, contextID = 0, MemCmd: WriteReq, CmdDir: 1
recvTimingReq: hasPC? 1, PC = 5170451, hasContextId? 1, contextID = 0, MemCmd: WriteReq, CmdDir: 1
recvTimingReq: hasPC? 1, PC = 5170592, hasContextId? 1, contextID = 0, MemCmd: ReadReq, CmdDir: 1
recvTimingReq: hasPC? 1, PC = 5170604, hasContextId? 1, contextID = 0, MemCmd: ReadReq, CmdDir: 1
recvTimingReq: hasPC? 1, PC = 5170467, hasContextId? 1, contextID = 0, MemCmd: WriteReq, CmdDir: 1
recvTimingReq: hasPC? 1, PC = 5170494, hasContextId? 1, contextID = 0, MemCmd: WriteReq, CmdDir: 1
recvTimingReq: hasPC? 1, PC = 5170592, hasContextId? 1, contextID = 0, MemCmd: ReadReq, CmdDir: 1
recvTimingReq: hasPC? 1, PC = 5170578, hasContextId? 1, contextID = 0, MemCmd: ReadReq, CmdDir: 1
recvTimingReq: hasPC? 1, PC = 5170604, hasContextId? 1, contextID = 0, MemCmd: ReadReq, CmdDir: 1
recvTimingReq: hasPC? 1, PC = 5170604, hasContextId? 1, contextID = 0, MemCmd: ReadReq, CmdDir: 1
recvTimingReq: hasPC? 1, PC = 5170592, hasContextId? 1, contextID = 0, MemCmd: ReadReq, CmdDir: 1
recvTimingReq: hasPC? 1, PC = 5170578, hasContextId? 1, contextID = 0, MemCmd: ReadReq, CmdDir: 1
recvTimingReq: hasPC? 1, PC = 5170604, hasContextId? 1, contextID = 0, MemCmd: ReadReq, CmdDir: 1
recvTimingReq: hasPC? 1, PC = 5170604, hasContextId? 1, contextID = 0, MemCmd: ReadReq, CmdDir: 1
recvTimingReq: hasPC? 1, PC = 5170517, hasContextId? 1, contextID = 0, MemCmd: WriteReq, CmdDir: 1
recvTimingReq: hasPC? 1, PC = 5170533, hasContextId? 1, contextID = 0, MemCmd: WriteReq, CmdDir: 1
recvTimingReq: hasPC? 1, PC = 5170592, hasContextId? 1, contextID = 0, MemCmd: ReadReq, CmdDir: 1
recvTimingReq: hasPC? 1, PC = 5170542, hasContextId? 1, contextID = 0, MemCmd: WriteReq, CmdDir: 1
recvTimingReq: hasPC? 1, PC = 5170604, hasContextId? 1, contextID = 0, MemCmd: ReadReq, CmdDir: 1
recvTimingReq: hasPC? 1, PC = 5170550, hasContextId? 1, contextID = 0, MemCmd: WriteReq, CmdDir: 1
recvTimingReq: hasPC? 1, PC = 5170558, hasContextId? 1, contextID = 0, MemCmd: WriteReq, CmdDir: 1
recvTimingReq: hasPC? 1, PC = 5170578, hasContextId? 1, contextID = 0, MemCmd: ReadReq, CmdDir: 1
recvTimingReq: hasPC? 1, PC = 5170592, hasContextId? 1, contextID = 0, MemCmd: ReadReq, CmdDir: 1
recvTimingReq: hasPC? 1, PC = 5170612, hasContextId? 1, contextID = 0, MemCmd: ReadReq, CmdDir: 1
recvTimingReq: hasPC? 1, PC = 5170604, hasContextId? 1, contextID = 0, MemCmd: ReadReq, CmdDir: 1
recvTimingReq: hasPC? 1, PC = 5170880, hasContextId? 1, contextID = 0, MemCmd: ReadReq, CmdDir: 1
recvTimingReq: hasPC? 1, PC = 5170896, hasContextId? 1, contextID = 0, MemCmd: ReadReq, CmdDir: 1
recvTimingReq: hasPC? 1, PC = 5170912, hasContextId? 1, contextID = 0, MemCmd: ReadReq, CmdDir: 1
recvTimingReq: hasPC? 1, PC = 5170928, hasContextId? 1, contextID = 0, MemCmd: ReadReq, CmdDir: 1
recvTimingReq: hasPC? 1, PC = 5170612, hasContextId? 1, contextID = 0, MemCmd: ReadReq, CmdDir: 1
recvTimingReq: hasPC? 1, PC = 5170604, hasContextId? 1, contextID = 0, MemCmd: ReadReq, CmdDir: 1
recvTimingReq: hasPC? 1, PC = 5170578, hasContextId? 1, contextID = 0, MemCmd: ReadReq, CmdDir: 1
recvTimingReq: hasPC? 1, PC = 5170592, hasContextId? 1, contextID = 0, MemCmd: ReadReq, CmdDir: 1
recvTimingReq: hasPC? 1, PC = 5170612, hasContextId? 1, contextID = 0, MemCmd: ReadReq, CmdDir: 1
recvTimingReq: hasPC? 1, PC = 5170604, hasContextId? 1, contextID = 0, MemCmd: ReadReq, CmdDir: 1
recvTimingReq: hasPC? 1, PC = 5170816, hasContextId? 1, contextID = 0, MemCmd: ReadReq, CmdDir: 1
recvTimingReq: hasPC? 1, PC = 5170832, hasContextId? 1, contextID = 0, MemCmd: ReadReq, CmdDir: 1
recvTimingReq: hasPC? 1, PC = 5170848, hasContextId? 1, contextID = 0, MemCmd: ReadReq, CmdDir: 1
recvTimingReq: hasPC? 1, PC = 5170864, hasContextId? 1, contextID = 0, MemCmd: ReadReq, CmdDir: 1
recvTimingReq: hasPC? 1, PC = 5170612, hasContextId? 1, contextID = 0, MemCmd: ReadReq, CmdDir: 1
recvTimingReq: hasPC? 1, PC = 5170604, hasContextId? 1, contextID = 0, MemCmd: ReadReq, CmdDir: 1
recvTimingReq: hasPC? 1, PC = 5170578, hasContextId? 1, contextID = 0, MemCmd: ReadReq, CmdDir: 1
recvTimingReq: hasPC? 1, PC = 5170592, hasContextId? 1, contextID = 0, MemCmd: ReadReq, CmdDir: 1
recvTimingReq: hasPC? 1, PC = 5170612, hasContextId? 1, contextID = 0, MemCmd: ReadReq, CmdDir: 1
recvTimingReq: hasPC? 1, PC = 5170604, hasContextId? 1, contextID = 0, MemCmd: ReadReq, CmdDir: 1
recvTimingReq: hasPC? 1, PC = 5170864, hasContextId? 1, contextID = 0, MemCmd: ReadReq, CmdDir: 1
recvTimingReq: hasPC? 1, PC = 5170880, hasContextId? 1, contextID = 0, MemCmd: ReadReq, CmdDir: 1
recvTimingReq: hasPC? 1, PC = 5170896, hasContextId? 1, contextID = 0, MemCmd: ReadReq, CmdDir: 1
recvTimingReq: hasPC? 1, PC = 5170612, hasContextId? 1, contextID = 0, MemCmd: ReadReq, CmdDir: 1
recvTimingReq: hasPC? 1, PC = 5170604, hasContextId? 1, contextID = 0, MemCmd: ReadReq, CmdDir: 1
recvTimingReq: hasPC? 1, PC = 5170730, hasContextId? 1, contextID = 0, MemCmd: ReadReq, CmdDir: 1
recvTimingReq: hasPC? 1, PC = 5170730, hasContextId? 1, contextID = 0, MemCmd: ReadReq, CmdDir: 1
recvTimingReq: hasPC? 1, PC = 5170731, hasContextId? 1, contextID = 0, MemCmd: ReadReq, CmdDir: 1
recvTimingReq: hasPC? 1, PC = 5170732, hasContextId? 1, contextID = 0, MemCmd: ReadReq, CmdDir: 1
recvTimingReq: hasPC? 1, PC = 5170734, hasContextId? 1, contextID = 0, MemCmd: ReadReq, CmdDir: 1
recvTimingReq: hasPC? 1, PC = 5170736, hasContextId? 1, contextID = 0, MemCmd: ReadReq, CmdDir: 1
recvTimingReq: hasPC? 1, PC = 5170738, hasContextId? 1, contextID = 0, MemCmd: ReadReq, CmdDir: 1
recvTimingReq: hasPC? 1, PC = 5170740, hasContextId? 1, contextID = 0, MemCmd: ReadReq, CmdDir: 1
recvTimingReq: hasPC? 1, PC = 4808046, hasContextId? 1, contextID = 0, MemCmd: ReadReq, CmdDir: 1
recvTimingReq: hasPC? 1, PC = 4808073, hasContextId? 1, contextID = 0, MemCmd: ReadReq, CmdDir: 1
recvTimingReq: hasPC? 1, PC = 4808080, hasContextId? 1, contextID = 0, MemCmd: ReadReq, CmdDir: 1
recvTimingReq: hasPC? 1, PC = 5170578, hasContextId? 1, contextID = 0, MemCmd: ReadReq, CmdDir: 1
recvTimingReq: hasPC? 1, PC = 5170592, hasContextId? 1, contextID = 0, MemCmd: ReadReq, CmdDir: 1
recvTimingReq: hasPC? 1, PC = 5170612, hasContextId? 1, contextID = 0, MemCmd: ReadReq, CmdDir: 1
recvTimingReq: hasPC? 1, PC = 5170604, hasContextId? 1, contextID = 0, MemCmd: ReadReq, CmdDir: 1
recvTimingReq: hasPC? 1, PC = 5170784, hasContextId? 1, contextID = 0, MemCmd: ReadReq, CmdDir: 1
recvTimingReq: hasPC? 1, PC = 5170800, hasContextId? 1, contextID = 0, MemCmd: ReadReq, CmdDir: 1
recvTimingReq: hasPC? 1, PC = 5170612, hasContextId? 1, contextID = 0, MemCmd: ReadReq, CmdDir: 1
recvTimingReq: hasPC? 1, PC = 5170604, hasContextId? 1, contextID = 0, MemCmd: ReadReq, CmdDir: 1
recvTimingReq: hasPC? 1, PC = 5170730, hasContextId? 1, contextID = 0, MemCmd: ReadReq, CmdDir: 1
recvTimingReq: hasPC? 1, PC = 5170578, hasContextId? 1, contextID = 0, MemCmd: ReadReq, CmdDir: 1
recvTimingReq: hasPC? 1, PC = 5170592, hasContextId? 1, contextID = 0, MemCmd: ReadReq, CmdDir: 1
recvTimingReq: hasPC? 1, PC = 5170612, hasContextId? 1, contextID = 0, MemCmd: ReadReq, CmdDir: 1
recvTimingReq: hasPC? 1, PC = 5170604, hasContextId? 1, contextID = 0, MemCmd: ReadReq, CmdDir: 1
recvTimingReq: hasPC? 1, PC = 5170612, hasContextId? 1, contextID = 0, MemCmd: ReadReq, CmdDir: 1
recvTimingReq: hasPC? 1, PC = 5170604, hasContextId? 1, contextID = 0, MemCmd: ReadReq, CmdDir: 1
recvTimingReq: hasPC? 1, PC = 5170730, hasContextId? 1, contextID = 0, MemCmd: ReadReq, CmdDir: 1
recvTimingReq: hasPC? 1, PC = 5170578, hasContextId? 1, contextID = 0, MemCmd: ReadReq, CmdDir: 1
recvTimingReq: hasPC? 1, PC = 5170592, hasContextId? 1, contextID = 0, MemCmd: ReadReq, CmdDir: 1
recvTimingReq: hasPC? 1, PC = 5170612, hasContextId? 1, contextID = 0, MemCmd: ReadReq, CmdDir: 1
recvTimingReq: hasPC? 1, PC = 5170604, hasContextId? 1, contextID = 0, MemCmd: ReadReq, CmdDir: 1
recvTimingReq: hasPC? 1, PC = 5170768, hasContextId? 1, contextID = 0, MemCmd: ReadReq, CmdDir: 1
recvTimingReq: hasPC? 1, PC = 5170784, hasContextId? 1, contextID = 0, MemCmd: ReadReq, CmdDir: 1
recvTimingReq: hasPC? 1, PC = 5170800, hasContextId? 1, contextID = 0, MemCmd: ReadReq, CmdDir: 1
recvTimingReq: hasPC? 1, PC = 5170612, hasContextId? 1, contextID = 0, MemCmd: ReadReq, CmdDir: 1
recvTimingReq: hasPC? 1, PC = 5170604, hasContextId? 1, contextID = 0, MemCmd: ReadReq, CmdDir: 1
recvTimingReq: hasPC? 1, PC = 5170578, hasContextId? 1, contextID = 0, MemCmd: ReadReq, CmdDir: 1
recvTimingReq: hasPC? 1, PC = 5170592, hasContextId? 1, contextID = 0, MemCmd: ReadReq, CmdDir: 1
recvTimingReq: hasPC? 1, PC = 5170612, hasContextId? 1, contextID = 0, MemCmd: ReadReq, CmdDir: 1
recvTimingReq: hasPC? 1, PC = 5170604, hasContextId? 1, contextID = 0, MemCmd: ReadReq, CmdDir: 1
recvTimingReq: hasPC? 1, PC = 5170730, hasContextId? 1, contextID = 0, MemCmd: ReadReq, CmdDir: 1
recvTimingReq: hasPC? 1, PC = 5170730, hasContextId? 1, contextID = 0, MemCmd: ReadReq, CmdDir: 1
recvTimingReq: hasPC? 1, PC = 5170731, hasContextId? 1, contextID = 0, MemCmd: ReadReq, CmdDir: 1
recvTimingReq: hasPC? 1, PC = 5170732, hasContextId? 1, contextID = 0, MemCmd: ReadReq, CmdDir: 1
recvTimingReq: hasPC? 1, PC = 5170734, hasContextId? 1, contextID = 0, MemCmd: ReadReq, CmdDir: 1
recvTimingReq: hasPC? 1, PC = 5170736, hasContextId? 1, contextID = 0, MemCmd: ReadReq, CmdDir: 1
recvTimingReq: hasPC? 1, PC = 5170738, hasContextId? 1, contextID = 0, MemCmd: ReadReq, CmdDir: 1
recvTimingReq: hasPC? 1, PC = 5170740, hasContextId? 1, contextID = 0, MemCmd: ReadReq, CmdDir: 1
recvTimingReq: hasPC? 1, PC = 4808046, hasContextId? 1, contextID = 0, MemCmd: ReadReq, CmdDir: 1
recvTimingReq: hasPC? 1, PC = 4808073, hasContextId? 1, contextID = 0, MemCmd: ReadReq, CmdDir: 1
recvTimingReq: hasPC? 1, PC = 4808080, hasContextId? 1, contextID = 0, MemCmd: ReadReq, CmdDir: 1
recvTimingReq: hasPC? 1, PC = 4808104, hasContextId? 1, contextID = 0, MemCmd: ReadReq, CmdDir: 1
recvTimingReq: hasPC? 1, PC = 4808108, hasContextId? 1, contextID = 0, MemCmd: ReadReq, CmdDir: 1
recvTimingReq: hasPC? 1, PC = 5170612, hasContextId? 1, contextID = 0, MemCmd: ReadReq, CmdDir: 1
recvTimingReq: hasPC? 1, PC = 5170604, hasContextId? 1, contextID = 0, MemCmd: ReadReq, CmdDir: 1
recvTimingReq: hasPC? 1, PC = 5170730, hasContextId? 1, contextID = 0, MemCmd: ReadReq, CmdDir: 1
recvTimingReq: hasPC? 1, PC = 5170578, hasContextId? 1, contextID = 0, MemCmd: ReadReq, CmdDir: 1
recvTimingReq: hasPC? 1, PC = 5170592, hasContextId? 1, contextID = 0, MemCmd: ReadReq, CmdDir: 1
recvTimingReq: hasPC? 1, PC = 5170612, hasContextId? 1, contextID = 0, MemCmd: ReadReq, CmdDir: 1
recvTimingReq: hasPC? 1, PC = 5170604, hasContextId? 1, contextID = 0, MemCmd: ReadReq, CmdDir: 1
recvTimingReq: hasPC? 1, PC = 5170612, hasContextId? 1, contextID = 0, MemCmd: ReadReq, CmdDir: 1
recvTimingReq: hasPC? 1, PC = 5170604, hasContextId? 1, contextID = 0, MemCmd: ReadReq, CmdDir: 1
recvTimingReq: hasPC? 1, PC = 5170730, hasContextId? 1, contextID = 0, MemCmd: ReadReq, CmdDir: 1
recvTimingReq: hasPC? 1, PC = 5170578, hasContextId? 1, contextID = 0, MemCmd: ReadReq, CmdDir: 1
recvTimingReq: hasPC? 1, PC = 5170592, hasContextId? 1, contextID = 0, MemCmd: ReadReq, CmdDir: 1
recvTimingReq: hasPC? 1, PC = 5170612, hasContextId? 1, contextID = 0, MemCmd: ReadReq, CmdDir: 1
recvTimingReq: hasPC? 1, PC = 5170604, hasContextId? 1, contextID = 0, MemCmd: ReadReq, CmdDir: 1
recvTimingReq: hasPC? 1, PC = 5170612, hasContextId? 1, contextID = 0, MemCmd: ReadReq, CmdDir: 1
recvTimingReq: hasPC? 1, PC = 5170604, hasContextId? 1, contextID = 0, MemCmd: ReadReq, CmdDir: 1
recvTimingReq: hasPC? 1, PC = 5170730, hasContextId? 1, contextID = 0, MemCmd: ReadReq, CmdDir: 1
recvTimingReq: hasPC? 1, PC = 5170578, hasContextId? 1, contextID = 0, MemCmd: ReadReq, CmdDir: 1
recvTimingReq: hasPC? 1, PC = 5170612, hasContextId? 1, contextID = 0, MemCmd: ReadReq, CmdDir: 1
recvTimingReq: hasPC? 1, PC = 5170604, hasContextId? 1, contextID = 0, MemCmd: ReadReq, CmdDir: 1
recvTimingReq: hasPC? 1, PC = 5170800, hasContextId? 1, contextID = 0, MemCmd: ReadReq, CmdDir: 1
recvTimingReq: hasPC? 1, PC = 5170816, hasContextId? 1, contextID = 0, MemCmd: ReadReq, CmdDir: 1
recvTimingReq: hasPC? 1, PC = 5170832, hasContextId? 1, contextID = 0, MemCmd: ReadReq, CmdDir: 1
recvTimingReq: hasPC? 1, PC = 5170612, hasContextId? 1, contextID = 0, MemCmd: ReadReq, CmdDir: 1
recvTimingReq: hasPC? 1, PC = 5170604, hasContextId? 1, contextID = 0, MemCmd: ReadReq, CmdDir: 1
recvTimingReq: hasPC? 1, PC = 5170578, hasContextId? 1, contextID = 0, MemCmd: ReadReq, CmdDir: 1
recvTimingReq: hasPC? 1, PC = 5170592, hasContextId? 1, contextID = 0, MemCmd: ReadReq, CmdDir: 1
recvTimingReq: hasPC? 1, PC = 5170612, hasContextId? 1, contextID = 0, MemCmd: ReadReq, CmdDir: 1
recvTimingReq: hasPC? 1, PC = 5170604, hasContextId? 1, contextID = 0, MemCmd: ReadReq, CmdDir: 1
recvTimingReq: hasPC? 1, PC = 5170832, hasContextId? 1, contextID = 0, MemCmd: ReadReq, CmdDir: 1
recvTimingReq: hasPC? 1, PC = 5170848, hasContextId? 1, contextID = 0, MemCmd: ReadReq, CmdDir: 1
recvTimingReq: hasPC? 1, PC = 5170864, hasContextId? 1, contextID = 0, MemCmd: ReadReq, CmdDir: 1
recvTimingReq: hasPC? 1, PC = 5170612, hasContextId? 1, contextID = 0, MemCmd: ReadReq, CmdDir: 1
recvTimingReq: hasPC? 1, PC = 5170604, hasContextId? 1, contextID = 0, MemCmd: ReadReq, CmdDir: 1
recvTimingReq: hasPC? 1, PC = 5170730, hasContextId? 1, contextID = 0, MemCmd: ReadReq, CmdDir: 1
recvTimingReq: hasPC? 1, PC = 5170730, hasContextId? 1, contextID = 0, MemCmd: ReadReq, CmdDir: 1
recvTimingReq: hasPC? 1, PC = 5170731, hasContextId? 1, contextID = 0, MemCmd: ReadReq, CmdDir: 1
recvTimingReq: hasPC? 1, PC = 5170732, hasContextId? 1, contextID = 0, MemCmd: ReadReq, CmdDir: 1
recvTimingReq: hasPC? 1, PC = 5170734, hasContextId? 1, contextID = 0, MemCmd: ReadReq, CmdDir: 1
recvTimingReq: hasPC? 1, PC = 5170736, hasContextId? 1, contextID = 0, MemCmd: ReadReq, CmdDir: 1
recvTimingReq: hasPC? 1, PC = 5170738, hasContextId? 1, contextID = 0, MemCmd: ReadReq, CmdDir: 1
recvTimingReq: hasPC? 1, PC = 5170740, hasContextId? 1, contextID = 0, MemCmd: ReadReq, CmdDir: 1
recvTimingReq: hasPC? 1, PC = 4808046, hasContextId? 1, contextID = 0, MemCmd: ReadReq, CmdDir: 1
recvTimingReq: hasPC? 1, PC = 4808073, hasContextId? 1, contextID = 0, MemCmd: ReadReq, CmdDir: 1
recvTimingReq: hasPC? 1, PC = 4808080, hasContextId? 1, contextID = 0, MemCmd: ReadReq, CmdDir: 1
recvTimingReq: hasPC? 1, PC = 4808104, hasContextId? 1, contextID = 0, MemCmd: ReadReq, CmdDir: 1
recvTimingReq: hasPC? 1, PC = 4808108, hasContextId? 1, contextID = 0, MemCmd: ReadReq, CmdDir: 1
recvTimingReq: hasPC? 1, PC = 5170578, hasContextId? 1, contextID = 0, MemCmd: ReadReq, CmdDir: 1
recvTimingReq: hasPC? 1, PC = 5170592, hasContextId? 1, contextID = 0, MemCmd: ReadReq, CmdDir: 1
recvTimingReq: hasPC? 1, PC = 5170612, hasContextId? 1, contextID = 0, MemCmd: ReadReq, CmdDir: 1
recvTimingReq: hasPC? 1, PC = 5170604, hasContextId? 1, contextID = 0, MemCmd: ReadReq, CmdDir: 1
recvTimingReq: hasPC? 1, PC = 5170752, hasContextId? 1, contextID = 0, MemCmd: ReadReq, CmdDir: 1
recvTimingReq: hasPC? 1, PC = 5170768, hasContextId? 1, contextID = 0, MemCmd: ReadReq, CmdDir: 1
recvTimingReq: hasPC? 1, PC = 5170784, hasContextId? 1, contextID = 0, MemCmd: ReadReq, CmdDir: 1
recvTimingReq: hasPC? 1, PC = 5170612, hasContextId? 1, contextID = 0, MemCmd: ReadReq, CmdDir: 1
recvTimingReq: hasPC? 1, PC = 5170604, hasContextId? 1, contextID = 0, MemCmd: ReadReq, CmdDir: 1
recvTimingReq: hasPC? 1, PC = 5170578, hasContextId? 1, contextID = 0, MemCmd: ReadReq, CmdDir: 1
recvTimingReq: hasPC? 1, PC = 5170592, hasContextId? 1, contextID = 0, MemCmd: ReadReq, CmdDir: 1
recvTimingReq: hasPC? 1, PC = 5170612, hasContextId? 1, contextID = 0, MemCmd: ReadReq, CmdDir: 1
recvTimingReq: hasPC? 1, PC = 5170604, hasContextId? 1, contextID = 0, MemCmd: ReadReq, CmdDir: 1
recvTimingReq: hasPC? 1, PC = 5170896, hasContextId? 1, contextID = 0, MemCmd: ReadReq, CmdDir: 1
recvTimingReq: hasPC? 1, PC = 5170912, hasContextId? 1, contextID = 0, MemCmd: ReadReq, CmdDir: 1
recvTimingReq: hasPC? 1, PC = 5170928, hasContextId? 1, contextID = 0, MemCmd: ReadReq, CmdDir: 1
recvTimingReq: hasPC? 1, PC = 5170612, hasContextId? 1, contextID = 0, MemCmd: ReadReq, CmdDir: 1
recvTimingReq: hasPC? 1, PC = 5170604, hasContextId? 1, contextID = 0, MemCmd: ReadReq, CmdDir: 1
recvTimingReq: hasPC? 1, PC = 5170578, hasContextId? 1, contextID = 0, MemCmd: ReadReq, CmdDir: 1
recvTimingReq: hasPC? 1, PC = 5170592, hasContextId? 1, contextID = 0, MemCmd: ReadReq, CmdDir: 1
recvTimingReq: hasPC? 1, PC = 5170612, hasContextId? 1, contextID = 0, MemCmd: ReadReq, CmdDir: 1
recvTimingReq: hasPC? 1, PC = 5170604, hasContextId? 1, contextID = 0, MemCmd: ReadReq, CmdDir: 1
recvTimingReq: hasPC? 1, PC = 5170730, hasContextId? 1, contextID = 0, MemCmd: ReadReq, CmdDir: 1
recvTimingReq: hasPC? 1, PC = 5170731, hasContextId? 1, contextID = 0, MemCmd: ReadReq, CmdDir: 1
recvTimingReq: hasPC? 1, PC = 5170732, hasContextId? 1, contextID = 0, MemCmd: ReadReq, CmdDir: 1
recvTimingReq: hasPC? 1, PC = 5170578, hasContextId? 1, contextID = 0, MemCmd: ReadReq, CmdDir: 1
recvTimingReq: hasPC? 1, PC = 5170592, hasContextId? 1, contextID = 0, MemCmd: ReadReq, CmdDir: 1
recvTimingReq: hasPC? 1, PC = 5170612, hasContextId? 1, contextID = 0, MemCmd: ReadReq, CmdDir: 1
recvTimingReq: hasPC? 1, PC = 5170604, hasContextId? 1, contextID = 0, MemCmd: ReadReq, CmdDir: 1
recvTimingReq: hasPC? 1, PC = 5170730, hasContextId? 1, contextID = 0, MemCmd: ReadReq, CmdDir: 1
recvTimingReq: hasPC? 1, PC = 5170731, hasContextId? 1, contextID = 0, MemCmd: ReadReq, CmdDir: 1
recvTimingReq: hasPC? 1, PC = 5170732, hasContextId? 1, contextID = 0, MemCmd: ReadReq, CmdDir: 1
recvTimingReq: hasPC? 1, PC = 5170734, hasContextId? 1, contextID = 0, MemCmd: ReadReq, CmdDir: 1
recvTimingReq: hasPC? 1, PC = 5170736, hasContextId? 1, contextID = 0, MemCmd: ReadReq, CmdDir: 1
recvTimingReq: hasPC? 1, PC = 5170738, hasContextId? 1, contextID = 0, MemCmd: ReadReq, CmdDir: 1
recvTimingReq: hasPC? 1, PC = 5170740, hasContextId? 1, contextID = 0, MemCmd: ReadReq, CmdDir: 1
recvTimingReq: hasPC? 1, PC = 4808046, hasContextId? 1, contextID = 0, MemCmd: ReadReq, CmdDir: 1
recvTimingReq: hasPC? 1, PC = 4808073, hasContextId? 1, contextID = 0, MemCmd: ReadReq, CmdDir: 1
recvTimingReq: hasPC? 1, PC = 4808080, hasContextId? 1, contextID = 0, MemCmd: ReadReq, CmdDir: 1
recvTimingReq: hasPC? 1, PC = 5170928, hasContextId? 1, contextID = 0, MemCmd: ReadReq, CmdDir: 1
recvTimingReq: hasPC? 1, PC = 5170952, hasContextId? 1, contextID = 0, MemCmd: ReadReq, CmdDir: 1
recvTimingReq: hasPC? 1, PC = 5170612, hasContextId? 1, contextID = 0, MemCmd: ReadReq, CmdDir: 1
recvTimingReq: hasPC? 1, PC = 5170604, hasContextId? 1, contextID = 0, MemCmd: ReadReq, CmdDir: 1
recvTimingReq: hasPC? 1, PC = 5170730, hasContextId? 1, contextID = 0, MemCmd: ReadReq, CmdDir: 1
recvTimingReq: hasPC? 1, PC = 5170578, hasContextId? 1, contextID = 0, MemCmd: ReadReq, CmdDir: 1
recvTimingReq: hasPC? 1, PC = 5170928, hasContextId? 1, contextID = 0, MemCmd: ReadReq, CmdDir: 1
recvTimingReq: hasPC? 1, PC = 5170604, hasContextId? 1, contextID = 0, MemCmd: ReadReq, CmdDir: 1
recvTimingReq: hasPC? 1, PC = 5170928, hasContextId? 1, contextID = 0, MemCmd: ReadReq, CmdDir: 1
recvTimingReq: hasPC? 1, PC = 5170912, hasContextId? 1, contextID = 0, MemCmd: ReadReq, CmdDir: 1
recvTimingReq: hasPC? 1, PC = 5170928, hasContextId? 1, contextID = 0, MemCmd: ReadReq, CmdDir: 1
recvTimingReq: hasPC? 1, PC = 5170952, hasContextId? 1, contextID = 0, MemCmd: ReadReq, CmdDir: 1
recvTimingReq: hasPC? 1, PC = 5170916, hasContextId? 1, contextID = 0, MemCmd: WriteReq, CmdDir: 1
recvTimingReq: hasPC? 1, PC = 5170612, hasContextId? 1, contextID = 0, MemCmd: ReadReq, CmdDir: 1
recvTimingReq: hasPC? 1, PC = 5170604, hasContextId? 1, contextID = 0, MemCmd: ReadReq, CmdDir: 1
recvTimingReq: hasPC? 1, PC = 5170578, hasContextId? 1, contextID = 0, MemCmd: ReadReq, CmdDir: 1
recvTimingReq: hasPC? 1, PC = 5170912, hasContextId? 1, contextID = 0, MemCmd: ReadReq, CmdDir: 1
recvTimingReq: hasPC? 1, PC = 5170604, hasContextId? 1, contextID = 0, MemCmd: ReadReq, CmdDir: 1
recvTimingReq: hasPC? 1, PC = 5170912, hasContextId? 1, contextID = 0, MemCmd: ReadReq, CmdDir: 1
recvTimingReq: hasPC? 1, PC = 5170928, hasContextId? 1, contextID = 0, MemCmd: ReadReq, CmdDir: 1
recvTimingReq: hasPC? 1, PC = 5170612, hasContextId? 1, contextID = 0, MemCmd: ReadReq, CmdDir: 1
recvTimingReq: hasPC? 1, PC = 5170604, hasContextId? 1, contextID = 0, MemCmd: ReadReq, CmdDir: 1
recvTimingReq: hasPC? 1, PC = 5170730, hasContextId? 1, contextID = 0, MemCmd: ReadReq, CmdDir: 1
recvTimingReq: hasPC? 1, PC = 5170578, hasContextId? 1, contextID = 0, MemCmd: ReadReq, CmdDir: 1
recvTimingReq: hasPC? 1, PC = 5170592, hasContextId? 1, contextID = 0, MemCmd: ReadReq, CmdDir: 1
recvTimingReq: hasPC? 1, PC = 5170612, hasContextId? 1, contextID = 0, MemCmd: ReadReq, CmdDir: 1
recvTimingReq: hasPC? 1, PC = 5170604, hasContextId? 1, contextID = 0, MemCmd: ReadReq, CmdDir: 1
recvTimingReq: hasPC? 1, PC = 5170612, hasContextId? 1, contextID = 0, MemCmd: ReadReq, CmdDir: 1
recvTimingReq: hasPC? 1, PC = 5170604, hasContextId? 1, contextID = 0, MemCmd: ReadReq, CmdDir: 1
recvTimingReq: hasPC? 1, PC = 5170730, hasContextId? 1, contextID = 0, MemCmd: ReadReq, CmdDir: 1
recvTimingReq: hasPC? 1, PC = 5170620, hasContextId? 1, contextID = 0, MemCmd: WriteReq, CmdDir: 1
recvTimingReq: hasPC? 1, PC = 5170730, hasContextId? 1, contextID = 0, MemCmd: ReadReq, CmdDir: 1
recvTimingReq: hasPC? 1, PC = 5170627, hasContextId? 1, contextID = 0, MemCmd: WriteReq, CmdDir: 1
recvTimingReq: hasPC? 1, PC = 5170731, hasContextId? 1, contextID = 0, MemCmd: ReadReq, CmdDir: 1
recvTimingReq: hasPC? 1, PC = 5170732, hasContextId? 1, contextID = 0, MemCmd: ReadReq, CmdDir: 1
recvTimingReq: hasPC? 1, PC = 5170734, hasContextId? 1, contextID = 0, MemCmd: ReadReq, CmdDir: 1
recvTimingReq: hasPC? 1, PC = 5170634, hasContextId? 1, contextID = 0, MemCmd: WriteReq, CmdDir: 1
recvTimingReq: hasPC? 1, PC = 5170736, hasContextId? 1, contextID = 0, MemCmd: ReadReq, CmdDir: 1
recvTimingReq: hasPC? 1, PC = 5170738, hasContextId? 1, contextID = 0, MemCmd: ReadReq, CmdDir: 1
recvTimingReq: hasPC? 1, PC = 5170740, hasContextId? 1, contextID = 0, MemCmd: ReadReq, CmdDir: 1
recvTimingReq: hasPC? 1, PC = 5170641, hasContextId? 1, contextID = 0, MemCmd: WriteReq, CmdDir: 1
recvTimingReq: hasPC? 1, PC = 5170648, hasContextId? 1, contextID = 0, MemCmd: WriteReq, CmdDir: 1
recvTimingReq: hasPC? 1, PC = 5170655, hasContextId? 1, contextID = 0, MemCmd: WriteReq, CmdDir: 1
recvTimingReq: hasPC? 1, PC = 5170662, hasContextId? 1, contextID = 0, MemCmd: WriteReq, CmdDir: 1
recvTimingReq: hasPC? 1, PC = 5170669, hasContextId? 1, contextID = 0, MemCmd: WriteReq, CmdDir: 1
recvTimingReq: hasPC? 1, PC = 5170676, hasContextId? 1, contextID = 0, MemCmd: WriteReq, CmdDir: 1
recvTimingReq: hasPC? 1, PC = 5170683, hasContextId? 1, contextID = 0, MemCmd: WriteReq, CmdDir: 1
recvTimingReq: hasPC? 1, PC = 4808032, hasContextId? 1, contextID = 0, MemCmd: ReadReq, CmdDir: 1
recvTimingReq: hasPC? 1, PC = 4808046, hasContextId? 1, contextID = 0, MemCmd: ReadReq, CmdDir: 1
recvTimingReq: hasPC? 1, PC = 5170690, hasContextId? 1, contextID = 0, MemCmd: WriteReq, CmdDir: 1
recvTimingReq: hasPC? 1, PC = 4808073, hasContextId? 1, contextID = 0, MemCmd: ReadReq, CmdDir: 1
recvTimingReq: hasPC? 1, PC = 4808080, hasContextId? 1, contextID = 0, MemCmd: ReadReq, CmdDir: 1
recvTimingReq: hasPC? 1, PC = 4808104, hasContextId? 1, contextID = 0, MemCmd: ReadReq, CmdDir: 1
recvTimingReq: hasPC? 1, PC = 4808108, hasContextId? 1, contextID = 0, MemCmd: ReadReq, CmdDir: 1
recvTimingReq: hasPC? 1, PC = 4808117, hasContextId? 1, contextID = 0, MemCmd: ReadReq, CmdDir: 1
recvTimingReq: hasPC? 1, PC = 4808387, hasContextId? 1, contextID = 0, MemCmd: WriteReq, CmdDir: 1
recvTimingReq: hasPC? 1, PC = 5174544, hasContextId? 1, contextID = 0, MemCmd: WriteReq, CmdDir: 1
recvTimingReq: hasPC? 1, PC = 5174545, hasContextId? 1, contextID = 0, MemCmd: WriteReq, CmdDir: 1
recvTimingReq: hasPC? 1, PC = 5174558, hasContextId? 1, contextID = 0, MemCmd: WriteReq, CmdDir: 1
recvFunctional: hasPC? 0, PC = NoPC, hasContextId? 0, contextID = NoContextId, MemCmd: WriteReq, CmdDir: 1
recvFunctional: hasPC? 0, PC = NoPC, hasContextId? 0, contextID = NoContextId, MemCmd: WriteReq, CmdDir: 1
recvFunctional: hasPC? 0, PC = NoPC, hasContextId? 0, contextID = NoContextId, MemCmd: WriteReq, CmdDir: 1
recvFunctional: hasPC? 0, PC = NoPC, hasContextId? 0, contextID = NoContextId, MemCmd: WriteReq, CmdDir: 1
recvFunctional: hasPC? 0, PC = NoPC, hasContextId? 0, contextID = NoContextId, MemCmd: WriteReq, CmdDir: 1
recvFunctional: hasPC? 0, PC = NoPC, hasContextId? 0, contextID = NoContextId, MemCmd: WriteReq, CmdDir: 1
recvTimingReq: hasPC? 1, PC = 5342499, hasContextId? 1, contextID = 0, MemCmd: ReadReq, CmdDir: 1
recvTimingReq: hasPC? 1, PC = 5174584, hasContextId? 1, contextID = 0, MemCmd: ReadReq, CmdDir: 1
recvTimingReq: hasPC? 1, PC = 5174595, hasContextId? 1, contextID = 0, MemCmd: ReadReq, CmdDir: 1
recvTimingReq: hasPC? 1, PC = 5174635, hasContextId? 1, contextID = 0, MemCmd: ReadReq, CmdDir: 1
recvTimingReq: hasPC? 1, PC = 5174678, hasContextId? 1, contextID = 0, MemCmd: ReadReq, CmdDir: 1
recvTimingReq: hasPC? 1, PC = 5174584, hasContextId? 1, contextID = 0, MemCmd: ReadReq, CmdDir: 1
recvTimingReq: hasPC? 1, PC = 5174595, hasContextId? 1, contextID = 0, MemCmd: ReadReq, CmdDir: 1
recvTimingReq: hasPC? 1, PC = 5174584, hasContextId? 1, contextID = 0, MemCmd: ReadReq, CmdDir: 1
recvTimingReq: hasPC? 1, PC = 5174595, hasContextId? 1, contextID = 0, MemCmd: ReadReq, CmdDir: 1
recvTimingReq: hasPC? 1, PC = 5174635, hasContextId? 1, contextID = 0, MemCmd: ReadReq, CmdDir: 1
recvTimingReq: hasPC? 1, PC = 5174584, hasContextId? 1, contextID = 0, MemCmd: ReadReq, CmdDir: 1
recvTimingReq: hasPC? 1, PC = 5174595, hasContextId? 1, contextID = 0, MemCmd: ReadReq, CmdDir: 1
recvTimingReq: hasPC? 1, PC = 5174635, hasContextId? 1, contextID = 0, MemCmd: ReadReq, CmdDir: 1
recvTimingReq: hasPC? 1, PC = 5174678, hasContextId? 1, contextID = 0, MemCmd: ReadReq, CmdDir: 1
recvTimingReq: hasPC? 1, PC = 5174678, hasContextId? 1, contextID = 0, MemCmd: ReadReq, CmdDir: 1
recvTimingReq: hasPC? 1, PC = 5174705, hasContextId? 1, contextID = 0, MemCmd: ReadReq, CmdDir: 1
recvTimingReq: hasPC? 1, PC = 5174708, hasContextId? 1, contextID = 0, MemCmd: ReadReq, CmdDir: 1
recvTimingReq: hasPC? 1, PC = 5174678, hasContextId? 1, contextID = 0, MemCmd: ReadReq, CmdDir: 1
recvTimingReq: hasPC? 1, PC = 5174679, hasContextId? 1, contextID = 0, MemCmd: ReadReq, CmdDir: 1
recvTimingReq: hasPC? 1, PC = 5174680, hasContextId? 1, contextID = 0, MemCmd: ReadReq, CmdDir: 1
recvTimingReq: hasPC? 1, PC = 4808400, hasContextId? 1, contextID = 0, MemCmd: ReadReq, CmdDir: 1
recvTimingReq: hasPC? 1, PC = 4808414, hasContextId? 1, contextID = 0, MemCmd: WriteReq, CmdDir: 1
recvTimingReq: hasPC? 1, PC = 4808073, hasContextId? 1, contextID = 0, MemCmd: ReadReq, CmdDir: 1
recvTimingReq: hasPC? 1, PC = 4808080, hasContextId? 1, contextID = 0, MemCmd: ReadReq, CmdDir: 1
recvTimingReq: hasPC? 1, PC = 4808104, hasContextId? 1, contextID = 0, MemCmd: ReadReq, CmdDir: 1
recvTimingReq: hasPC? 1, PC = 4808108, hasContextId? 1, contextID = 0, MemCmd: ReadReq, CmdDir: 1
recvTimingReq: hasPC? 1, PC = 4808117, hasContextId? 1, contextID = 0, MemCmd: ReadReq, CmdDir: 1
recvTimingReq: hasPC? 1, PC = 4808117, hasContextId? 1, contextID = 0, MemCmd: ReadReq, CmdDir: 1
recvTimingReq: hasPC? 1, PC = 4808142, hasContextId? 1, contextID = 0, MemCmd: ReadReq, CmdDir: 1
recvTimingReq: hasPC? 1, PC = 4808117, hasContextId? 1, contextID = 0, MemCmd: WriteReq, CmdDir: 1
recvTimingReq: hasPC? 1, PC = 4972480, hasContextId? 1, contextID = 0, MemCmd: ReadReq, CmdDir: 1
recvTimingReq: hasPC? 1, PC = 4972494, hasContextId? 1, contextID = 0, MemCmd: ReadReq, CmdDir: 1
recvTimingReq: hasPC? 1, PC = 4972513, hasContextId? 1, contextID = 0, MemCmd: ReadReq, CmdDir: 1
recvTimingReq: hasPC? 1, PC = 4972489, hasContextId? 1, contextID = 0, MemCmd: WriteReq, CmdDir: 1
recvTimingReq: hasPC? 1, PC = 5174994, hasContextId? 1, contextID = 0, MemCmd: WriteReq, CmdDir: 1
recvTimingReq: hasPC? 1, PC = 5175003, hasContextId? 1, contextID = 0, MemCmd: WriteReq, CmdDir: 1
recvTimingReq: hasPC? 1, PC = 5175056, hasContextId? 1, contextID = 0, MemCmd: ReadReq, CmdDir: 1
recvTimingReq: hasPC? 1, PC = 5175098, hasContextId? 1, contextID = 0, MemCmd: ReadReq, CmdDir: 1
recvTimingReq: hasPC? 1, PC = 5175160, hasContextId? 1, contextID = 0, MemCmd: ReadReq, CmdDir: 1
recvTimingReq: hasPC? 1, PC = 5175161, hasContextId? 1, contextID = 0, MemCmd: ReadReq, CmdDir: 1
recvTimingReq: hasPC? 1, PC = 5175160, hasContextId? 1, contextID = 0, MemCmd: ReadReq, CmdDir: 1
recvTimingReq: hasPC? 1, PC = 5175161, hasContextId? 1, contextID = 0, MemCmd: ReadReq, CmdDir: 1
recvTimingReq: hasPC? 1, PC = 5175141, hasContextId? 1, contextID = 0, MemCmd: WriteReq, CmdDir: 1
recvTimingReq: hasPC? 1, PC = 5175147, hasContextId? 1, contextID = 0, MemCmd: WriteReq, CmdDir: 1
recvTimingReq: hasPC? 1, PC = 5175153, hasContextId? 1, contextID = 0, MemCmd: WriteReq, CmdDir: 1
recvTimingReq: hasPC? 1, PC = 4972494, hasContextId? 1, contextID = 0, MemCmd: ReadReq, CmdDir: 1
recvTimingReq: hasPC? 1, PC = 4972513, hasContextId? 1, contextID = 0, MemCmd: ReadReq, CmdDir: 1
recvTimingReq: hasPC? 1, PC = 4972532, hasContextId? 1, contextID = 0, MemCmd: ReadReq, CmdDir: 1
recvTimingReq: hasPC? 1, PC = 4972551, hasContextId? 1, contextID = 0, MemCmd: ReadReq, CmdDir: 1
recvTimingReq: hasPC? 1, PC = 4808142, hasContextId? 1, contextID = 0, MemCmd: ReadReq, CmdDir: 1
recvTimingReq: hasPC? 1, PC = 4808124, hasContextId? 1, contextID = 0, MemCmd: WriteReq, CmdDir: 1
recvTimingReq: hasPC? 1, PC = 4808104, hasContextId? 1, contextID = 0, MemCmd: ReadReq, CmdDir: 1
recvTimingReq: hasPC? 1, PC = 4808108, hasContextId? 1, contextID = 0, MemCmd: ReadReq, CmdDir: 1
recvTimingReq: hasPC? 1, PC = 4808117, hasContextId? 1, contextID = 0, MemCmd: ReadReq, CmdDir: 1
recvTimingReq: hasPC? 1, PC = 4808142, hasContextId? 1, contextID = 0, MemCmd: ReadReq, CmdDir: 1
recvTimingReq: hasPC? 1, PC = 4808117, hasContextId? 1, contextID = 0, MemCmd: WriteReq, CmdDir: 1
recvTimingReq: hasPC? 1, PC = 4994256, hasContextId? 1, contextID = 0, MemCmd: ReadReq, CmdDir: 1
recvTimingReq: hasPC? 1, PC = 4994270, hasContextId? 1, contextID = 0, MemCmd: ReadReq, CmdDir: 1
recvTimingReq: hasPC? 1, PC = 4994289, hasContextId? 1, contextID = 0, MemCmd: ReadReq, CmdDir: 1
recvTimingReq: hasPC? 1, PC = 4994270, hasContextId? 1, contextID = 0, MemCmd: ReadReq, CmdDir: 1
recvTimingReq: hasPC? 1, PC = 4994289, hasContextId? 1, contextID = 0, MemCmd: ReadReq, CmdDir: 1
recvTimingReq: hasPC? 1, PC = 4994308, hasContextId? 1, contextID = 0, MemCmd: ReadReq, CmdDir: 1
recvTimingReq: hasPC? 1, PC = 4994327, hasContextId? 1, contextID = 0, MemCmd: ReadReq, CmdDir: 1
recvTimingReq: hasPC? 1, PC = 4808142, hasContextId? 1, contextID = 0, MemCmd: ReadReq, CmdDir: 1
recvTimingReq: hasPC? 1, PC = 4808124, hasContextId? 1, contextID = 0, MemCmd: WriteReq, CmdDir: 1
recvTimingReq: hasPC? 1, PC = 4808104, hasContextId? 1, contextID = 0, MemCmd: ReadReq, CmdDir: 1
recvTimingReq: hasPC? 1, PC = 4808108, hasContextId? 1, contextID = 0, MemCmd: ReadReq, CmdDir: 1
recvTimingReq: hasPC? 1, PC = 4808117, hasContextId? 1, contextID = 0, MemCmd: ReadReq, CmdDir: 1
recvTimingReq: hasPC? 1, PC = 4808117, hasContextId? 1, contextID = 0, MemCmd: WriteReq, CmdDir: 1
recvTimingReq: hasPC? 1, PC = 5306608, hasContextId? 1, contextID = 0, MemCmd: ReadReq, CmdDir: 1
recvTimingReq: hasPC? 1, PC = 5306629, hasContextId? 1, contextID = 0, MemCmd: ReadReq, CmdDir: 1
recvTimingReq: hasPC? 1, PC = 5306648, hasContextId? 1, contextID = 0, MemCmd: ReadReq, CmdDir: 1
recvTimingReq: hasPC? 1, PC = 5306667, hasContextId? 1, contextID = 0, MemCmd: ReadReq, CmdDir: 1
recvTimingReq: hasPC? 1, PC = 4808142, hasContextId? 1, contextID = 0, MemCmd: ReadReq, CmdDir: 1
recvTimingReq: hasPC? 1, PC = 4808104, hasContextId? 1, contextID = 0, MemCmd: ReadReq, CmdDir: 1
recvTimingReq: hasPC? 1, PC = 4808108, hasContextId? 1, contextID = 0, MemCmd: ReadReq, CmdDir: 1
recvTimingReq: hasPC? 1, PC = 4808117, hasContextId? 1, contextID = 0, MemCmd: ReadReq, CmdDir: 1
recvTimingReq: hasPC? 1, PC = 4808142, hasContextId? 1, contextID = 0, MemCmd: ReadReq, CmdDir: 1
recvTimingReq: hasPC? 1, PC = 4808104, hasContextId? 1, contextID = 0, MemCmd: ReadReq, CmdDir: 1
recvTimingReq: hasPC? 1, PC = 4808108, hasContextId? 1, contextID = 0, MemCmd: ReadReq, CmdDir: 1
recvTimingReq: hasPC? 1, PC = 4808117, hasContextId? 1, contextID = 0, MemCmd: ReadReq, CmdDir: 1
recvTimingReq: hasPC? 1, PC = 4808142, hasContextId? 1, contextID = 0, MemCmd: ReadReq, CmdDir: 1
recvTimingReq: hasPC? 1, PC = 4808104, hasContextId? 1, contextID = 0, MemCmd: ReadReq, CmdDir: 1
recvTimingReq: hasPC? 1, PC = 4808108, hasContextId? 1, contextID = 0, MemCmd: ReadReq, CmdDir: 1
recvTimingReq: hasPC? 1, PC = 4808117, hasContextId? 1, contextID = 0, MemCmd: ReadReq, CmdDir: 1
recvTimingReq: hasPC? 1, PC = 4808142, hasContextId? 1, contextID = 0, MemCmd: ReadReq, CmdDir: 1
recvTimingReq: hasPC? 1, PC = 4808104, hasContextId? 1, contextID = 0, MemCmd: ReadReq, CmdDir: 1
recvTimingReq: hasPC? 1, PC = 4808108, hasContextId? 1, contextID = 0, MemCmd: ReadReq, CmdDir: 1
recvTimingReq: hasPC? 1, PC = 4808117, hasContextId? 1, contextID = 0, MemCmd: ReadReq, CmdDir: 1
recvTimingReq: hasPC? 1, PC = 5306667, hasContextId? 1, contextID = 0, MemCmd: ReadReq, CmdDir: 1
recvTimingReq: hasPC? 1, PC = 4808124, hasContextId? 1, contextID = 0, MemCmd: WriteReq, CmdDir: 1
recvTimingReq: hasPC? 1, PC = 4808104, hasContextId? 1, contextID = 0, MemCmd: ReadReq, CmdDir: 1
recvTimingReq: hasPC? 1, PC = 4808108, hasContextId? 1, contextID = 0, MemCmd: ReadReq, CmdDir: 1
recvTimingReq: hasPC? 1, PC = 4808117, hasContextId? 1, contextID = 0, MemCmd: ReadReq, CmdDir: 1
recvTimingReq: hasPC? 1, PC = 4808117, hasContextId? 1, contextID = 0, MemCmd: WriteReq, CmdDir: 1
recvTimingReq: hasPC? 1, PC = 4947264, hasContextId? 1, contextID = 0, MemCmd: ReadReq, CmdDir: 1
recvTimingReq: hasPC? 1, PC = 4947285, hasContextId? 1, contextID = 0, MemCmd: ReadReq, CmdDir: 1
recvTimingReq: hasPC? 1, PC = 4947285, hasContextId? 1, contextID = 0, MemCmd: ReadReq, CmdDir: 1
recvTimingReq: hasPC? 1, PC = 4947304, hasContextId? 1, contextID = 0, MemCmd: ReadReq, CmdDir: 1
recvTimingReq: hasPC? 1, PC = 4947304, hasContextId? 1, contextID = 0, MemCmd: ReadReq, CmdDir: 1
recvTimingReq: hasPC? 1, PC = 4808142, hasContextId? 1, contextID = 0, MemCmd: ReadReq, CmdDir: 1
recvTimingReq: hasPC? 1, PC = 4808124, hasContextId? 1, contextID = 0, MemCmd: WriteReq, CmdDir: 1
recvTimingReq: hasPC? 1, PC = 4808104, hasContextId? 1, contextID = 0, MemCmd: ReadReq, CmdDir: 1
recvTimingReq: hasPC? 1, PC = 4808108, hasContextId? 1, contextID = 0, MemCmd: ReadReq, CmdDir: 1
recvTimingReq: hasPC? 1, PC = 4808117, hasContextId? 1, contextID = 0, MemCmd: ReadReq, CmdDir: 1
recvTimingReq: hasPC? 1, PC = 4808142, hasContextId? 1, contextID = 0, MemCmd: ReadReq, CmdDir: 1
recvTimingReq: hasPC? 1, PC = 4808117, hasContextId? 1, contextID = 0, MemCmd: WriteReq, CmdDir: 1
recvTimingReq: hasPC? 1, PC = 4968292, hasContextId? 1, contextID = 0, MemCmd: ReadReq, CmdDir: 1
recvTimingReq: hasPC? 1, PC = 4968302, hasContextId? 1, contextID = 0, MemCmd: ReadReq, CmdDir: 1
recvTimingReq: hasPC? 1, PC = 4968327, hasContextId? 1, contextID = 0, MemCmd: ReadReq, CmdDir: 1
recvTimingReq: hasPC? 1, PC = 4808142, hasContextId? 1, contextID = 0, MemCmd: ReadReq, CmdDir: 1
recvTimingReq: hasPC? 1, PC = 4808124, hasContextId? 1, contextID = 0, MemCmd: WriteReq, CmdDir: 1
recvTimingReq: hasPC? 1, PC = 4808104, hasContextId? 1, contextID = 0, MemCmd: ReadReq, CmdDir: 1
recvTimingReq: hasPC? 1, PC = 4808108, hasContextId? 1, contextID = 0, MemCmd: ReadReq, CmdDir: 1
recvTimingReq: hasPC? 1, PC = 4808117, hasContextId? 1, contextID = 0, MemCmd: ReadReq, CmdDir: 1
recvTimingReq: hasPC? 1, PC = 4808142, hasContextId? 1, contextID = 0, MemCmd: ReadReq, CmdDir: 1
recvTimingReq: hasPC? 1, PC = 4808117, hasContextId? 1, contextID = 0, MemCmd: WriteReq, CmdDir: 1
recvTimingReq: hasPC? 1, PC = 4956608, hasContextId? 1, contextID = 0, MemCmd: ReadReq, CmdDir: 1
recvTimingReq: hasPC? 1, PC = 4956629, hasContextId? 1, contextID = 0, MemCmd: ReadReq, CmdDir: 1
recvTimingReq: hasPC? 1, PC = 4956629, hasContextId? 1, contextID = 0, MemCmd: ReadReq, CmdDir: 1
recvTimingReq: hasPC? 1, PC = 4956648, hasContextId? 1, contextID = 0, MemCmd: ReadReq, CmdDir: 1
recvTimingReq: hasPC? 1, PC = 4956667, hasContextId? 1, contextID = 0, MemCmd: ReadReq, CmdDir: 1
recvTimingReq: hasPC? 1, PC = 4956667, hasContextId? 1, contextID = 0, MemCmd: ReadReq, CmdDir: 1
recvTimingReq: hasPC? 1, PC = 4808142, hasContextId? 1, contextID = 0, MemCmd: ReadReq, CmdDir: 1
recvTimingReq: hasPC? 1, PC = 4808124, hasContextId? 1, contextID = 0, MemCmd: WriteReq, CmdDir: 1
recvTimingReq: hasPC? 1, PC = 4808104, hasContextId? 1, contextID = 0, MemCmd: ReadReq, CmdDir: 1
recvTimingReq: hasPC? 1, PC = 4808108, hasContextId? 1, contextID = 0, MemCmd: ReadReq, CmdDir: 1
recvTimingReq: hasPC? 1, PC = 4808117, hasContextId? 1, contextID = 0, MemCmd: ReadReq, CmdDir: 1
recvTimingReq: hasPC? 1, PC = 4808117, hasContextId? 1, contextID = 0, MemCmd: WriteReq, CmdDir: 1
recvTimingReq: hasPC? 1, PC = 4970692, hasContextId? 1, contextID = 0, MemCmd: ReadReq, CmdDir: 1
recvTimingReq: hasPC? 1, PC = 4970702, hasContextId? 1, contextID = 0, MemCmd: ReadReq, CmdDir: 1
recvTimingReq: hasPC? 1, PC = 4970716, hasContextId? 1, contextID = 0, MemCmd: ReadReq, CmdDir: 1
recvTimingReq: hasPC? 1, PC = 4970741, hasContextId? 1, contextID = 0, MemCmd: ReadReq, CmdDir: 1
recvTimingReq: hasPC? 1, PC = 4970741, hasContextId? 1, contextID = 0, MemCmd: ReadReq, CmdDir: 1
recvTimingReq: hasPC? 1, PC = 4808142, hasContextId? 1, contextID = 0, MemCmd: ReadReq, CmdDir: 1
recvTimingReq: hasPC? 1, PC = 4808124, hasContextId? 1, contextID = 0, MemCmd: WriteReq, CmdDir: 1
recvTimingReq: hasPC? 1, PC = 4808104, hasContextId? 1, contextID = 0, MemCmd: ReadReq, CmdDir: 1
recvTimingReq: hasPC? 1, PC = 4808108, hasContextId? 1, contextID = 0, MemCmd: ReadReq, CmdDir: 1
recvTimingReq: hasPC? 1, PC = 4808117, hasContextId? 1, contextID = 0, MemCmd: ReadReq, CmdDir: 1
recvTimingReq: hasPC? 1, PC = 4808117, hasContextId? 1, contextID = 0, MemCmd: WriteReq, CmdDir: 1
recvTimingReq: hasPC? 1, PC = 4972192, hasContextId? 1, contextID = 0, MemCmd: ReadReq, CmdDir: 1
recvTimingReq: hasPC? 1, PC = 4972213, hasContextId? 1, contextID = 0, MemCmd: ReadReq, CmdDir: 1
recvTimingReq: hasPC? 1, PC = 4972213, hasContextId? 1, contextID = 0, MemCmd: ReadReq, CmdDir: 1
recvTimingReq: hasPC? 1, PC = 4972232, hasContextId? 1, contextID = 0, MemCmd: ReadReq, CmdDir: 1
recvTimingReq: hasPC? 1, PC = 4972251, hasContextId? 1, contextID = 0, MemCmd: ReadReq, CmdDir: 1
recvTimingReq: hasPC? 1, PC = 4972251, hasContextId? 1, contextID = 0, MemCmd: ReadReq, CmdDir: 1
recvTimingReq: hasPC? 1, PC = 4808124, hasContextId? 1, contextID = 0, MemCmd: WriteReq, CmdDir: 1
recvTimingReq: hasPC? 1, PC = 4808104, hasContextId? 1, contextID = 0, MemCmd: ReadReq, CmdDir: 1
recvTimingReq: hasPC? 1, PC = 4808108, hasContextId? 1, contextID = 0, MemCmd: ReadReq, CmdDir: 1
recvTimingReq: hasPC? 1, PC = 4808117, hasContextId? 1, contextID = 0, MemCmd: ReadReq, CmdDir: 1
recvTimingReq: hasPC? 1, PC = 4808104, hasContextId? 1, contextID = 0, MemCmd: ReadReq, CmdDir: 1
recvTimingReq: hasPC? 1, PC = 4808108, hasContextId? 1, contextID = 0, MemCmd: ReadReq, CmdDir: 1
recvTimingReq: hasPC? 1, PC = 4808117, hasContextId? 1, contextID = 0, MemCmd: ReadReq, CmdDir: 1
recvTimingReq: hasPC? 1, PC = 4808104, hasContextId? 1, contextID = 0, MemCmd: ReadReq, CmdDir: 1
recvTimingReq: hasPC? 1, PC = 4808108, hasContextId? 1, contextID = 0, MemCmd: ReadReq, CmdDir: 1
recvTimingReq: hasPC? 1, PC = 4808117, hasContextId? 1, contextID = 0, MemCmd: ReadReq, CmdDir: 1
recvTimingReq: hasPC? 1, PC = 4808104, hasContextId? 1, contextID = 0, MemCmd: ReadReq, CmdDir: 1
recvTimingReq: hasPC? 1, PC = 4808108, hasContextId? 1, contextID = 0, MemCmd: ReadReq, CmdDir: 1
recvTimingReq: hasPC? 1, PC = 4808117, hasContextId? 1, contextID = 0, MemCmd: ReadReq, CmdDir: 1
recvTimingReq: hasPC? 1, PC = 4808142, hasContextId? 1, contextID = 0, MemCmd: ReadReq, CmdDir: 1
recvTimingReq: hasPC? 1, PC = 4808117, hasContextId? 1, contextID = 0, MemCmd: WriteReq, CmdDir: 1
recvTimingReq: hasPC? 1, PC = 4947856, hasContextId? 1, contextID = 0, MemCmd: ReadReq, CmdDir: 1
recvTimingReq: hasPC? 1, PC = 4947877, hasContextId? 1, contextID = 0, MemCmd: ReadReq, CmdDir: 1
recvTimingReq: hasPC? 1, PC = 4947877, hasContextId? 1, contextID = 0, MemCmd: ReadReq, CmdDir: 1
recvTimingReq: hasPC? 1, PC = 4947896, hasContextId? 1, contextID = 0, MemCmd: ReadReq, CmdDir: 1
recvTimingReq: hasPC? 1, PC = 4947915, hasContextId? 1, contextID = 0, MemCmd: ReadReq, CmdDir: 1
recvTimingReq: hasPC? 1, PC = 4808142, hasContextId? 1, contextID = 0, MemCmd: ReadReq, CmdDir: 1
recvTimingReq: hasPC? 1, PC = 4808124, hasContextId? 1, contextID = 0, MemCmd: WriteReq, CmdDir: 1
recvTimingReq: hasPC? 1, PC = 4808104, hasContextId? 1, contextID = 0, MemCmd: ReadReq, CmdDir: 1
recvTimingReq: hasPC? 1, PC = 4808108, hasContextId? 1, contextID = 0, MemCmd: ReadReq, CmdDir: 1
recvTimingReq: hasPC? 1, PC = 4808117, hasContextId? 1, contextID = 0, MemCmd: ReadReq, CmdDir: 1
recvTimingReq: hasPC? 1, PC = 4808104, hasContextId? 1, contextID = 0, MemCmd: ReadReq, CmdDir: 1
recvTimingReq: hasPC? 1, PC = 4808108, hasContextId? 1, contextID = 0, MemCmd: ReadReq, CmdDir: 1
recvTimingReq: hasPC? 1, PC = 4808117, hasContextId? 1, contextID = 0, MemCmd: ReadReq, CmdDir: 1
recvTimingReq: hasPC? 1, PC = 4808117, hasContextId? 1, contextID = 0, MemCmd: WriteReq, CmdDir: 1
recvTimingReq: hasPC? 1, PC = 5114736, hasContextId? 1, contextID = 0, MemCmd: ReadReq, CmdDir: 1
recvTimingReq: hasPC? 1, PC = 5114750, hasContextId? 1, contextID = 0, MemCmd: ReadReq, CmdDir: 1
recvTimingReq: hasPC? 1, PC = 5114769, hasContextId? 1, contextID = 0, MemCmd: ReadReq, CmdDir: 1
recvTimingReq: hasPC? 1, PC = 4808142, hasContextId? 1, contextID = 0, MemCmd: ReadReq, CmdDir: 1
recvTimingReq: hasPC? 1, PC = 4808124, hasContextId? 1, contextID = 0, MemCmd: WriteReq, CmdDir: 1
recvTimingReq: hasPC? 1, PC = 4808104, hasContextId? 1, contextID = 0, MemCmd: ReadReq, CmdDir: 1
recvTimingReq: hasPC? 1, PC = 4808108, hasContextId? 1, contextID = 0, MemCmd: ReadReq, CmdDir: 1
recvTimingReq: hasPC? 1, PC = 4808117, hasContextId? 1, contextID = 0, MemCmd: ReadReq, CmdDir: 1
recvTimingReq: hasPC? 1, PC = 4808104, hasContextId? 1, contextID = 0, MemCmd: ReadReq, CmdDir: 1
recvTimingReq: hasPC? 1, PC = 4808108, hasContextId? 1, contextID = 0, MemCmd: ReadReq, CmdDir: 1
recvTimingReq: hasPC? 1, PC = 4808117, hasContextId? 1, contextID = 0, MemCmd: ReadReq, CmdDir: 1
recvTimingReq: hasPC? 1, PC = 4808117, hasContextId? 1, contextID = 0, MemCmd: WriteReq, CmdDir: 1
recvTimingReq: hasPC? 1, PC = 4969200, hasContextId? 1, contextID = 0, MemCmd: ReadReq, CmdDir: 1
recvTimingReq: hasPC? 1, PC = 4969214, hasContextId? 1, contextID = 0, MemCmd: ReadReq, CmdDir: 1
recvTimingReq: hasPC? 1, PC = 4969233, hasContextId? 1, contextID = 0, MemCmd: ReadReq, CmdDir: 1
recvTimingReq: hasPC? 1, PC = 4808142, hasContextId? 1, contextID = 0, MemCmd: ReadReq, CmdDir: 1
recvTimingReq: hasPC? 1, PC = 4808124, hasContextId? 1, contextID = 0, MemCmd: WriteReq, CmdDir: 1
recvTimingReq: hasPC? 1, PC = 4808137, hasContextId? 1, contextID = 0, MemCmd: WriteReq, CmdDir: 1
recvTimingReq: hasPC? 1, PC = 4808910, hasContextId? 1, contextID = 0, MemCmd: ReadReq, CmdDir: 1
recvTimingReq: hasPC? 1, PC = 4808922, hasContextId? 1, contextID = 0, MemCmd: ReadReq, CmdDir: 1
recvTimingReq: hasPC? 1, PC = 4808896, hasContextId? 1, contextID = 0, MemCmd: WriteReq, CmdDir: 1
recvTimingReq: hasPC? 1, PC = 4808898, hasContextId? 1, contextID = 0, MemCmd: WriteReq, CmdDir: 1
recvTimingReq: hasPC? 1, PC = 4808900, hasContextId? 1, contextID = 0, MemCmd: WriteReq, CmdDir: 1
recvTimingReq: hasPC? 1, PC = 4808902, hasContextId? 1, contextID = 0, MemCmd: WriteReq, CmdDir: 1
recvTimingReq: hasPC? 1, PC = 4808904, hasContextId? 1, contextID = 0, MemCmd: WriteReq, CmdDir: 1
recvTimingReq: hasPC? 1, PC = 4808905, hasContextId? 1, contextID = 0, MemCmd: WriteReq, CmdDir: 1
recvTimingReq: hasPC? 1, PC = 4808969, hasContextId? 1, contextID = 0, MemCmd: ReadReq, CmdDir: 1
recvTimingReq: hasPC? 1, PC = 4808974, hasContextId? 1, contextID = 0, MemCmd: ReadReq, CmdDir: 1
recvTimingReq: hasPC? 1, PC = 4808978, hasContextId? 1, contextID = 0, MemCmd: ReadReq, CmdDir: 1
recvTimingReq: hasPC? 1, PC = 4808982, hasContextId? 1, contextID = 0, MemCmd: ReadReq, CmdDir: 1
recvTimingReq: hasPC? 1, PC = 4808986, hasContextId? 1, contextID = 0, MemCmd: ReadReq, CmdDir: 1
recvTimingReq: hasPC? 1, PC = 4809021, hasContextId? 1, contextID = 0, MemCmd: ReadReq, CmdDir: 1
recvTimingReq: hasPC? 1, PC = 4808969, hasContextId? 1, contextID = 0, MemCmd: ReadReq, CmdDir: 1
recvTimingReq: hasPC? 1, PC = 4808974, hasContextId? 1, contextID = 0, MemCmd: ReadReq, CmdDir: 1
recvTimingReq: hasPC? 1, PC = 4808978, hasContextId? 1, contextID = 0, MemCmd: ReadReq, CmdDir: 1
recvTimingReq: hasPC? 1, PC = 4808982, hasContextId? 1, contextID = 0, MemCmd: ReadReq, CmdDir: 1
recvTimingReq: hasPC? 1, PC = 4808986, hasContextId? 1, contextID = 0, MemCmd: ReadReq, CmdDir: 1
recvTimingReq: hasPC? 1, PC = 4809021, hasContextId? 1, contextID = 0, MemCmd: ReadReq, CmdDir: 1
recvTimingReq: hasPC? 1, PC = 4808969, hasContextId? 1, contextID = 0, MemCmd: ReadReq, CmdDir: 1
recvTimingReq: hasPC? 1, PC = 4808969, hasContextId? 1, contextID = 0, MemCmd: ReadReq, CmdDir: 1
recvTimingReq: hasPC? 1, PC = 4808969, hasContextId? 1, contextID = 0, MemCmd: ReadReq, CmdDir: 1
recvTimingReq: hasPC? 1, PC = 4808969, hasContextId? 1, contextID = 0, MemCmd: ReadReq, CmdDir: 1
recvTimingReq: hasPC? 1, PC = 4808969, hasContextId? 1, contextID = 0, MemCmd: ReadReq, CmdDir: 1
recvTimingReq: hasPC? 1, PC = 4809021, hasContextId? 1, contextID = 0, MemCmd: ReadReq, CmdDir: 1
recvTimingReq: hasPC? 1, PC = 4809021, hasContextId? 1, contextID = 0, MemCmd: ReadReq, CmdDir: 1
recvTimingReq: hasPC? 1, PC = 5156841, hasContextId? 1, contextID = 0, MemCmd: ReadReq, CmdDir: 1
recvTimingReq: hasPC? 1, PC = 5156853, hasContextId? 1, contextID = 0, MemCmd: ReadReq, CmdDir: 1
recvTimingReq: hasPC? 1, PC = 5156853, hasContextId? 1, contextID = 0, MemCmd: ReadReq, CmdDir: 1
recvTimingReq: hasPC? 1, PC = 4808974, hasContextId? 1, contextID = 0, MemCmd: ReadReq, CmdDir: 1
recvTimingReq: hasPC? 1, PC = 4808978, hasContextId? 1, contextID = 0, MemCmd: ReadReq, CmdDir: 1
recvTimingReq: hasPC? 1, PC = 4808982, hasContextId? 1, contextID = 0, MemCmd: ReadReq, CmdDir: 1
recvTimingReq: hasPC? 1, PC = 4808986, hasContextId? 1, contextID = 0, MemCmd: ReadReq, CmdDir: 1
recvTimingReq: hasPC? 1, PC = 4809021, hasContextId? 1, contextID = 0, MemCmd: ReadReq, CmdDir: 1
recvTimingReq: hasPC? 1, PC = 4809021, hasContextId? 1, contextID = 0, MemCmd: ReadReq, CmdDir: 1
recvTimingReq: hasPC? 1, PC = 5156841, hasContextId? 1, contextID = 0, MemCmd: ReadReq, CmdDir: 1
recvTimingReq: hasPC? 1, PC = 5156853, hasContextId? 1, contextID = 0, MemCmd: ReadReq, CmdDir: 1
recvTimingReq: hasPC? 1, PC = 4809055, hasContextId? 1, contextID = 0, MemCmd: WriteReq, CmdDir: 1
recvTimingReq: hasPC? 1, PC = 5156913, hasContextId? 1, contextID = 0, MemCmd: ReadReq, CmdDir: 1
recvTimingReq: hasPC? 1, PC = 5156832, hasContextId? 1, contextID = 0, MemCmd: WriteReq, CmdDir: 1
recvTimingReq: hasPC? 1, PC = 5156836, hasContextId? 1, contextID = 0, MemCmd: WriteReq, CmdDir: 1
recvTimingReq: hasPC? 1, PC = 5156906, hasContextId? 1, contextID = 0, MemCmd: WriteReq, CmdDir: 1
recvTimingReq: hasPC? 1, PC = 5343991, hasContextId? 1, contextID = 0, MemCmd: WriteReq, CmdDir: 1
recvTimingReq: hasPC? 1, PC = 5344005, hasContextId? 1, contextID = 0, MemCmd: ReadReq, CmdDir: 1
recvTimingReq: hasPC? 1, PC = 5170998, hasContextId? 1, contextID = 0, MemCmd: ReadReq, CmdDir: 1
recvTimingReq: hasPC? 1, PC = 5156913, hasContextId? 1, contextID = 0, MemCmd: ReadReq, CmdDir: 1
recvTimingReq: hasPC? 1, PC = 5156880, hasContextId? 1, contextID = 0, MemCmd: WriteReq, CmdDir: 1
recvTimingReq: hasPC? 1, PC = 5344005, hasContextId? 1, contextID = 0, MemCmd: ReadReq, CmdDir: 1
recvTimingReq: hasPC? 1, PC = 5343991, hasContextId? 1, contextID = 0, MemCmd: WriteReq, CmdDir: 1
recvTimingReq: hasPC? 1, PC = 5156896, hasContextId? 1, contextID = 0, MemCmd: ReadReq, CmdDir: 1
recvTimingReq: hasPC? 1, PC = 5156897, hasContextId? 1, contextID = 0, MemCmd: ReadReq, CmdDir: 1
recvTimingReq: hasPC? 1, PC = 5156898, hasContextId? 1, contextID = 0, MemCmd: ReadReq, CmdDir: 1
recvTimingReq: hasPC? 1, PC = 4809082, hasContextId? 1, contextID = 0, MemCmd: ReadReq, CmdDir: 1
recvTimingReq: hasPC? 1, PC = 4809068, hasContextId? 1, contextID = 0, MemCmd: WriteReq, CmdDir: 1
recvTimingReq: hasPC? 1, PC = 4809161, hasContextId? 1, contextID = 0, MemCmd: ReadReq, CmdDir: 1
recvTimingReq: hasPC? 1, PC = 4809123, hasContextId? 1, contextID = 0, MemCmd: WriteReq, CmdDir: 1
recvTimingReq: hasPC? 1, PC = 5018974, hasContextId? 1, contextID = 0, MemCmd: ReadReq, CmdDir: 1
recvTimingReq: hasPC? 1, PC = 4809133, hasContextId? 1, contextID = 0, MemCmd: WriteReq, CmdDir: 1
recvTimingReq: hasPC? 1, PC = 4809138, hasContextId? 1, contextID = 0, MemCmd: WriteReq, CmdDir: 1
recvTimingReq: hasPC? 1, PC = 5019120, hasContextId? 1, contextID = 0, MemCmd: ReadReq, CmdDir: 1
recvTimingReq: hasPC? 1, PC = 4809145, hasContextId? 1, contextID = 0, MemCmd: WriteReq, CmdDir: 1
recvTimingReq: hasPC? 1, PC = 4809149, hasContextId? 1, contextID = 0, MemCmd: WriteReq, CmdDir: 1
recvTimingReq: hasPC? 1, PC = 4809156, hasContextId? 1, contextID = 0, MemCmd: WriteReq, CmdDir: 1
recvTimingReq: hasPC? 1, PC = 5019088, hasContextId? 1, contextID = 0, MemCmd: WriteReq, CmdDir: 1
recvTimingReq: hasPC? 1, PC = 5019170, hasContextId? 1, contextID = 0, MemCmd: ReadReq, CmdDir: 1
recvTimingReq: hasPC? 1, PC = 5019173, hasContextId? 1, contextID = 0, MemCmd: ReadReq, CmdDir: 1
recvTimingReq: hasPC? 1, PC = 5019177, hasContextId? 1, contextID = 0, MemCmd: ReadReq, CmdDir: 1
recvTimingReq: hasPC? 1, PC = 5019181, hasContextId? 1, contextID = 0, MemCmd: ReadReq, CmdDir: 1
recvTimingReq: hasPC? 1, PC = 5019185, hasContextId? 1, contextID = 0, MemCmd: WriteReq, CmdDir: 1
recvTimingReq: hasPC? 1, PC = 5019212, hasContextId? 1, contextID = 0, MemCmd: ReadReq, CmdDir: 1
recvTimingReq: hasPC? 1, PC = 5019215, hasContextId? 1, contextID = 0, MemCmd: ReadReq, CmdDir: 1
recvTimingReq: hasPC? 1, PC = 5019219, hasContextId? 1, contextID = 0, MemCmd: ReadReq, CmdDir: 1
recvTimingReq: hasPC? 1, PC = 5019223, hasContextId? 1, contextID = 0, MemCmd: ReadReq, CmdDir: 1
recvTimingReq: hasPC? 1, PC = 5019188, hasContextId? 1, contextID = 0, MemCmd: WriteReq, CmdDir: 1
recvTimingReq: hasPC? 1, PC = 5019192, hasContextId? 1, contextID = 0, MemCmd: WriteReq, CmdDir: 1
recvTimingReq: hasPC? 1, PC = 5019196, hasContextId? 1, contextID = 0, MemCmd: WriteReq, CmdDir: 1
recvTimingReq: hasPC? 1, PC = 5019267, hasContextId? 1, contextID = 0, MemCmd: ReadReq, CmdDir: 1
recvTimingReq: hasPC? 1, PC = 5019278, hasContextId? 1, contextID = 0, MemCmd: ReadReq, CmdDir: 1
recvTimingReq: hasPC? 1, PC = 4809161, hasContextId? 1, contextID = 0, MemCmd: ReadReq, CmdDir: 1
recvTimingReq: hasPC? 1, PC = 4809180, hasContextId? 1, contextID = 0, MemCmd: WriteReq, CmdDir: 1
recvTimingReq: hasPC? 1, PC = 4809188, hasContextId? 1, contextID = 0, MemCmd: WriteReq, CmdDir: 1
recvTimingReq: hasPC? 1, PC = 4809191, hasContextId? 1, contextID = 0, MemCmd: WriteReq, CmdDir: 1
recvTimingReq: hasPC? 1, PC = 4809199, hasContextId? 1, contextID = 0, MemCmd: ReadReq, CmdDir: 1
recvTimingReq: hasPC? 1, PC = 4809235, hasContextId? 1, contextID = 0, MemCmd: WriteReq, CmdDir: 1
recvTimingReq: hasPC? 1, PC = 4809326, hasContextId? 1, contextID = 0, MemCmd: ReadReq, CmdDir: 1
recvTimingReq: hasPC? 1, PC = 4809242, hasContextId? 1, contextID = 0, MemCmd: WriteReq, CmdDir: 1
recvTimingReq: hasPC? 1, PC = 4809249, hasContextId? 1, contextID = 0, MemCmd: WriteReq, CmdDir: 1
recvTimingReq: hasPC? 1, PC = 4809402, hasContextId? 1, contextID = 0, MemCmd: ReadReq, CmdDir: 1
recvTimingReq: hasPC? 1, PC = 4809403, hasContextId? 1, contextID = 0, MemCmd: ReadReq, CmdDir: 1
recvTimingReq: hasPC? 1, PC = 4809404, hasContextId? 1, contextID = 0, MemCmd: ReadReq, CmdDir: 1
recvTimingReq: hasPC? 1, PC = 4809256, hasContextId? 1, contextID = 0, MemCmd: WriteReq, CmdDir: 1
recvTimingReq: hasPC? 1, PC = 4809406, hasContextId? 1, contextID = 0, MemCmd: ReadReq, CmdDir: 1
recvTimingReq: hasPC? 1, PC = 4809263, hasContextId? 1, contextID = 0, MemCmd: WriteReq, CmdDir: 1
recvTimingReq: hasPC? 1, PC = 4809274, hasContextId? 1, contextID = 0, MemCmd: WriteReq, CmdDir: 1
recvTimingReq: hasPC? 1, PC = 4809408, hasContextId? 1, contextID = 0, MemCmd: ReadReq, CmdDir: 1
recvTimingReq: hasPC? 1, PC = 4809410, hasContextId? 1, contextID = 0, MemCmd: ReadReq, CmdDir: 1
recvTimingReq: hasPC? 1, PC = 4809412, hasContextId? 1, contextID = 0, MemCmd: ReadReq, CmdDir: 1
recvTimingReq: hasPC? 1, PC = 4972494, hasContextId? 1, contextID = 0, MemCmd: ReadReq, CmdDir: 1
recvTimingReq: hasPC? 1, PC = 4972513, hasContextId? 1, contextID = 0, MemCmd: ReadReq, CmdDir: 1
recvTimingReq: hasPC? 1, PC = 4972532, hasContextId? 1, contextID = 0, MemCmd: ReadReq, CmdDir: 1
recvTimingReq: hasPC? 1, PC = 4808142, hasContextId? 1, contextID = 0, MemCmd: ReadReq, CmdDir: 1
recvTimingReq: hasPC? 1, PC = 4808158, hasContextId? 1, contextID = 0, MemCmd: ReadReq, CmdDir: 1
recvTimingReq: hasPC? 1, PC = 4808158, hasContextId? 1, contextID = 0, MemCmd: ReadReq, CmdDir: 1
recvTimingReq: hasPC? 1, PC = 4808191, hasContextId? 1, contextID = 0, MemCmd: ReadReq, CmdDir: 1
recvTimingReq: hasPC? 1, PC = 4808221, hasContextId? 1, contextID = 0, MemCmd: ReadReq, CmdDir: 1
recvTimingReq: hasPC? 1, PC = 4808228, hasContextId? 1, contextID = 0, MemCmd: ReadReq, CmdDir: 1
recvTimingReq: hasPC? 1, PC = 4808233, hasContextId? 1, contextID = 0, MemCmd: ReadReq, CmdDir: 1
recvTimingReq: hasPC? 1, PC = 4809285, hasContextId? 1, contextID = 0, MemCmd: WriteReq, CmdDir: 1
recvTimingReq: hasPC? 1, PC = 4808228, hasContextId? 1, contextID = 0, MemCmd: ReadReq, CmdDir: 1
recvTimingReq: hasPC? 1, PC = 4808233, hasContextId? 1, contextID = 0, MemCmd: ReadReq, CmdDir: 1
recvTimingReq: hasPC? 1, PC = 4808221, hasContextId? 1, contextID = 0, MemCmd: ReadReq, CmdDir: 1
recvTimingReq: hasPC? 1, PC = 4809296, hasContextId? 1, contextID = 0, MemCmd: WriteReq, CmdDir: 1
recvTimingReq: hasPC? 1, PC = 4809307, hasContextId? 1, contextID = 0, MemCmd: WriteReq, CmdDir: 1
recvTimingReq: hasPC? 1, PC = 4809333, hasContextId? 1, contextID = 0, MemCmd: WriteReq, CmdDir: 1
recvTimingReq: hasPC? 1, PC = 4809353, hasContextId? 1, contextID = 0, MemCmd: WriteReq, CmdDir: 1
recvTimingReq: hasPC? 1, PC = 4809384, hasContextId? 1, contextID = 0, MemCmd: WriteReq, CmdDir: 1
recvTimingReq: hasPC? 1, PC = 4809391, hasContextId? 1, contextID = 0, MemCmd: WriteReq, CmdDir: 1
recvTimingReq: hasPC? 1, PC = 4808164, hasContextId? 1, contextID = 0, MemCmd: WriteReq, CmdDir: 1
recvTimingReq: hasPC? 1, PC = 4808173, hasContextId? 1, contextID = 0, MemCmd: WriteReq, CmdDir: 1
recvTimingReq: hasPC? 1, PC = 4808195, hasContextId? 1, contextID = 0, MemCmd: WriteReq, CmdDir: 1
recvTimingReq: hasPC? 1, PC = 4808237, hasContextId? 1, contextID = 0, MemCmd: WriteReq, CmdDir: 1
recvTimingReq: hasPC? 1, PC = 5174816, hasContextId? 1, contextID = 0, MemCmd: WriteReq, CmdDir: 1
recvTimingReq: hasPC? 1, PC = 5174829, hasContextId? 1, contextID = 0, MemCmd: WriteReq, CmdDir: 1
recvTimingReq: hasPC? 1, PC = 5174833, hasContextId? 1, contextID = 0, MemCmd: WriteReq, CmdDir: 1
recvTimingReq: hasPC? 1, PC = 5174912, hasContextId? 1, contextID = 0, MemCmd: ReadReq, CmdDir: 1
recvTimingReq: hasPC? 1, PC = 5174929, hasContextId? 1, contextID = 0, MemCmd: ReadReq, CmdDir: 1
recvTimingReq: hasPC? 1, PC = 5174919, hasContextId? 1, contextID = 0, MemCmd: WriteReq, CmdDir: 1
recvTimingReq: hasPC? 1, PC = 5174858, hasContextId? 1, contextID = 0, MemCmd: WriteReq, CmdDir: 1
recvTimingReq: hasPC? 1, PC = 5174864, hasContextId? 1, contextID = 0, MemCmd: WriteReq, CmdDir: 1
recvTimingReq: hasPC? 1, PC = 5174871, hasContextId? 1, contextID = 0, MemCmd: WriteReq, CmdDir: 1
recvTimingReq: hasPC? 1, PC = 5174878, hasContextId? 1, contextID = 0, MemCmd: WriteReq, CmdDir: 1
recvTimingReq: hasPC? 1, PC = 5174410, hasContextId? 1, contextID = 0, MemCmd: ReadReq, CmdDir: 1
recvTimingReq: hasPC? 1, PC = 5174400, hasContextId? 1, contextID = 0, MemCmd: ReadReq, CmdDir: 1
recvTimingReq: hasPC? 1, PC = 5174883, hasContextId? 1, contextID = 0, MemCmd: WriteReq, CmdDir: 1
recvTimingReq: hasPC? 1, PC = 5170998, hasContextId? 1, contextID = 0, MemCmd: ReadReq, CmdDir: 1
recvTimingReq: hasPC? 1, PC = 5171012, hasContextId? 1, contextID = 0, MemCmd: ReadReq, CmdDir: 1
recvTimingReq: hasPC? 1, PC = 5170976, hasContextId? 1, contextID = 0, MemCmd: WriteReq, CmdDir: 1
recvTimingReq: hasPC? 1, PC = 5170978, hasContextId? 1, contextID = 0, MemCmd: WriteReq, CmdDir: 1
recvTimingReq: hasPC? 1, PC = 5170980, hasContextId? 1, contextID = 0, MemCmd: WriteReq, CmdDir: 1
recvTimingReq: hasPC? 1, PC = 5170981, hasContextId? 1, contextID = 0, MemCmd: WriteReq, CmdDir: 1
recvTimingReq: hasPC? 1, PC = 5170986, hasContextId? 1, contextID = 0, MemCmd: WriteReq, CmdDir: 1
recvTimingReq: hasPC? 1, PC = 5384032, hasContextId? 1, contextID = 0, MemCmd: WriteReq, CmdDir: 1
recvTimingReq: hasPC? 1, PC = 5384049, hasContextId? 1, contextID = 0, MemCmd: WriteReq, CmdDir: 1
recvTimingReq: hasPC? 1, PC = 5384050, hasContextId? 1, contextID = 0, MemCmd: WriteReq, CmdDir: 1
recvFunctional: hasPC? 0, PC = NoPC, hasContextId? 0, contextID = NoContextId, MemCmd: ReadReq, CmdDir: 1
recvFunctional: hasPC? 0, PC = NoPC, hasContextId? 0, contextID = NoContextId, MemCmd: ReadReq, CmdDir: 1
recvFunctional: hasPC? 0, PC = NoPC, hasContextId? 0, contextID = NoContextId, MemCmd: ReadReq, CmdDir: 1
recvFunctional: hasPC? 0, PC = NoPC, hasContextId? 0, contextID = NoContextId, MemCmd: ReadReq, CmdDir: 1
recvFunctional: hasPC? 0, PC = NoPC, hasContextId? 0, contextID = NoContextId, MemCmd: ReadReq, CmdDir: 1
recvFunctional: hasPC? 0, PC = NoPC, hasContextId? 0, contextID = NoContextId, MemCmd: ReadReq, CmdDir: 1
recvFunctional: hasPC? 0, PC = NoPC, hasContextId? 0, contextID = NoContextId, MemCmd: ReadReq, CmdDir: 1
recvFunctional: hasPC? 0, PC = NoPC, hasContextId? 0, contextID = NoContextId, MemCmd: ReadReq, CmdDir: 1
recvFunctional: hasPC? 0, PC = NoPC, hasContextId? 0, contextID = NoContextId, MemCmd: ReadReq, CmdDir: 1
recvFunctional: hasPC? 0, PC = NoPC, hasContextId? 0, contextID = NoContextId, MemCmd: ReadReq, CmdDir: 1
recvFunctional: hasPC? 0, PC = NoPC, hasContextId? 0, contextID = NoContextId, MemCmd: ReadReq, CmdDir: 1
recvFunctional: hasPC? 0, PC = NoPC, hasContextId? 0, contextID = NoContextId, MemCmd: ReadReq, CmdDir: 1
recvFunctional: hasPC? 0, PC = NoPC, hasContextId? 0, contextID = NoContextId, MemCmd: ReadReq, CmdDir: 1
recvFunctional: hasPC? 0, PC = NoPC, hasContextId? 0, contextID = NoContextId, MemCmd: ReadReq, CmdDir: 1
recvFunctional: hasPC? 0, PC = NoPC, hasContextId? 0, contextID = NoContextId, MemCmd: ReadReq, CmdDir: 1
info: Increasing stack size by one page.
recvFunctional: hasPC? 0, PC = NoPC, hasContextId? 0, contextID = NoContextId, MemCmd: WriteReq, CmdDir: 1
recvFunctional: hasPC? 0, PC = NoPC, hasContextId? 0, contextID = NoContextId, MemCmd: WriteReq, CmdDir: 1
recvFunctional: hasPC? 0, PC = NoPC, hasContextId? 0, contextID = NoContextId, MemCmd: WriteReq, CmdDir: 1
recvFunctional: hasPC? 0, PC = NoPC, hasContextId? 0, contextID = NoContextId, MemCmd: WriteReq, CmdDir: 1
recvFunctional: hasPC? 0, PC = NoPC, hasContextId? 0, contextID = NoContextId, MemCmd: WriteReq, CmdDir: 1
recvFunctional: hasPC? 0, PC = NoPC, hasContextId? 0, contextID = NoContextId, MemCmd: WriteReq, CmdDir: 1
recvFunctional: hasPC? 0, PC = NoPC, hasContextId? 0, contextID = NoContextId, MemCmd: WriteReq, CmdDir: 1
recvFunctional: hasPC? 0, PC = NoPC, hasContextId? 0, contextID = NoContextId, MemCmd: WriteReq, CmdDir: 1
recvFunctional: hasPC? 0, PC = NoPC, hasContextId? 0, contextID = NoContextId, MemCmd: WriteReq, CmdDir: 1
recvFunctional: hasPC? 0, PC = NoPC, hasContextId? 0, contextID = NoContextId, MemCmd: WriteReq, CmdDir: 1
recvFunctional: hasPC? 0, PC = NoPC, hasContextId? 0, contextID = NoContextId, MemCmd: WriteReq, CmdDir: 1
recvFunctional: hasPC? 0, PC = NoPC, hasContextId? 0, contextID = NoContextId, MemCmd: WriteReq, CmdDir: 1
recvFunctional: hasPC? 0, PC = NoPC, hasContextId? 0, contextID = NoContextId, MemCmd: WriteReq, CmdDir: 1
recvFunctional: hasPC? 0, PC = NoPC, hasContextId? 0, contextID = NoContextId, MemCmd: WriteReq, CmdDir: 1
recvFunctional: hasPC? 0, PC = NoPC, hasContextId? 0, contextID = NoContextId, MemCmd: WriteReq, CmdDir: 1
recvFunctional: hasPC? 0, PC = NoPC, hasContextId? 0, contextID = NoContextId, MemCmd: WriteReq, CmdDir: 1
recvFunctional: hasPC? 0, PC = NoPC, hasContextId? 0, contextID = NoContextId, MemCmd: WriteReq, CmdDir: 1
recvFunctional: hasPC? 0, PC = NoPC, hasContextId? 0, contextID = NoContextId, MemCmd: WriteReq, CmdDir: 1
recvFunctional: hasPC? 0, PC = NoPC, hasContextId? 0, contextID = NoContextId, MemCmd: WriteReq, CmdDir: 1
recvFunctional: hasPC? 0, PC = NoPC, hasContextId? 0, contextID = NoContextId, MemCmd: WriteReq, CmdDir: 1
recvFunctional: hasPC? 0, PC = NoPC, hasContextId? 0, contextID = NoContextId, MemCmd: WriteReq, CmdDir: 1
recvFunctional: hasPC? 0, PC = NoPC, hasContextId? 0, contextID = NoContextId, MemCmd: WriteReq, CmdDir: 1
recvFunctional: hasPC? 0, PC = NoPC, hasContextId? 0, contextID = NoContextId, MemCmd: WriteReq, CmdDir: 1
recvFunctional: hasPC? 0, PC = NoPC, hasContextId? 0, contextID = NoContextId, MemCmd: WriteReq, CmdDir: 1
recvFunctional: hasPC? 0, PC = NoPC, hasContextId? 0, contextID = NoContextId, MemCmd: WriteReq, CmdDir: 1
recvFunctional: hasPC? 0, PC = NoPC, hasContextId? 0, contextID = NoContextId, MemCmd: WriteReq, CmdDir: 1
recvFunctional: hasPC? 0, PC = NoPC, hasContextId? 0, contextID = NoContextId, MemCmd: WriteReq, CmdDir: 1
recvFunctional: hasPC? 0, PC = NoPC, hasContextId? 0, contextID = NoContextId, MemCmd: WriteReq, CmdDir: 1
recvFunctional: hasPC? 0, PC = NoPC, hasContextId? 0, contextID = NoContextId, MemCmd: WriteReq, CmdDir: 1
recvFunctional: hasPC? 0, PC = NoPC, hasContextId? 0, contextID = NoContextId, MemCmd: WriteReq, CmdDir: 1
recvFunctional: hasPC? 0, PC = NoPC, hasContextId? 0, contextID = NoContextId, MemCmd: WriteReq, CmdDir: 1
recvFunctional: hasPC? 0, PC = NoPC, hasContextId? 0, contextID = NoContextId, MemCmd: WriteReq, CmdDir: 1
recvFunctional: hasPC? 0, PC = NoPC, hasContextId? 0, contextID = NoContextId, MemCmd: WriteReq, CmdDir: 1
recvFunctional: hasPC? 0, PC = NoPC, hasContextId? 0, contextID = NoContextId, MemCmd: WriteReq, CmdDir: 1
recvFunctional: hasPC? 0, PC = NoPC, hasContextId? 0, contextID = NoContextId, MemCmd: WriteReq, CmdDir: 1
recvFunctional: hasPC? 0, PC = NoPC, hasContextId? 0, contextID = NoContextId, MemCmd: WriteReq, CmdDir: 1
recvFunctional: hasPC? 0, PC = NoPC, hasContextId? 0, contextID = NoContextId, MemCmd: WriteReq, CmdDir: 1
recvFunctional: hasPC? 0, PC = NoPC, hasContextId? 0, contextID = NoContextId, MemCmd: WriteReq, CmdDir: 1
recvFunctional: hasPC? 0, PC = NoPC, hasContextId? 0, contextID = NoContextId, MemCmd: WriteReq, CmdDir: 1
recvFunctional: hasPC? 0, PC = NoPC, hasContextId? 0, contextID = NoContextId, MemCmd: WriteReq, CmdDir: 1
recvFunctional: hasPC? 0, PC = NoPC, hasContextId? 0, contextID = NoContextId, MemCmd: WriteReq, CmdDir: 1
recvFunctional: hasPC? 0, PC = NoPC, hasContextId? 0, contextID = NoContextId, MemCmd: WriteReq, CmdDir: 1
recvFunctional: hasPC? 0, PC = NoPC, hasContextId? 0, contextID = NoContextId, MemCmd: WriteReq, CmdDir: 1
recvFunctional: hasPC? 0, PC = NoPC, hasContextId? 0, contextID = NoContextId, MemCmd: WriteReq, CmdDir: 1
recvFunctional: hasPC? 0, PC = NoPC, hasContextId? 0, contextID = NoContextId, MemCmd: WriteReq, CmdDir: 1
recvFunctional: hasPC? 0, PC = NoPC, hasContextId? 0, contextID = NoContextId, MemCmd: WriteReq, CmdDir: 1
recvFunctional: hasPC? 0, PC = NoPC, hasContextId? 0, contextID = NoContextId, MemCmd: WriteReq, CmdDir: 1
recvFunctional: hasPC? 0, PC = NoPC, hasContextId? 0, contextID = NoContextId, MemCmd: WriteReq, CmdDir: 1
recvFunctional: hasPC? 0, PC = NoPC, hasContextId? 0, contextID = NoContextId, MemCmd: WriteReq, CmdDir: 1
recvFunctional: hasPC? 0, PC = NoPC, hasContextId? 0, contextID = NoContextId, MemCmd: WriteReq, CmdDir: 1
recvFunctional: hasPC? 0, PC = NoPC, hasContextId? 0, contextID = NoContextId, MemCmd: WriteReq, CmdDir: 1
recvFunctional: hasPC? 0, PC = NoPC, hasContextId? 0, contextID = NoContextId, MemCmd: WriteReq, CmdDir: 1
recvFunctional: hasPC? 0, PC = NoPC, hasContextId? 0, contextID = NoContextId, MemCmd: WriteReq, CmdDir: 1
recvFunctional: hasPC? 0, PC = NoPC, hasContextId? 0, contextID = NoContextId, MemCmd: WriteReq, CmdDir: 1
recvFunctional: hasPC? 0, PC = NoPC, hasContextId? 0, contextID = NoContextId, MemCmd: WriteReq, CmdDir: 1
recvFunctional: hasPC? 0, PC = NoPC, hasContextId? 0, contextID = NoContextId, MemCmd: WriteReq, CmdDir: 1
recvFunctional: hasPC? 0, PC = NoPC, hasContextId? 0, contextID = NoContextId, MemCmd: WriteReq, CmdDir: 1
recvFunctional: hasPC? 0, PC = NoPC, hasContextId? 0, contextID = NoContextId, MemCmd: WriteReq, CmdDir: 1
recvFunctional: hasPC? 0, PC = NoPC, hasContextId? 0, contextID = NoContextId, MemCmd: WriteReq, CmdDir: 1
recvFunctional: hasPC? 0, PC = NoPC, hasContextId? 0, contextID = NoContextId, MemCmd: WriteReq, CmdDir: 1
recvFunctional: hasPC? 0, PC = NoPC, hasContextId? 0, contextID = NoContextId, MemCmd: WriteReq, CmdDir: 1
recvFunctional: hasPC? 0, PC = NoPC, hasContextId? 0, contextID = NoContextId, MemCmd: WriteReq, CmdDir: 1
recvFunctional: hasPC? 0, PC = NoPC, hasContextId? 0, contextID = NoContextId, MemCmd: WriteReq, CmdDir: 1
recvFunctional: hasPC? 0, PC = NoPC, hasContextId? 0, contextID = NoContextId, MemCmd: WriteReq, CmdDir: 1
recvFunctional: hasPC? 0, PC = NoPC, hasContextId? 0, contextID = NoContextId, MemCmd: WriteReq, CmdDir: 1
recvTimingReq: hasPC? 1, PC = 5384074, hasContextId? 1, contextID = 0, MemCmd: ReadReq, CmdDir: 1
recvTimingReq: hasPC? 1, PC = 5384192, hasContextId? 1, contextID = 0, MemCmd: ReadReq, CmdDir: 1
recvTimingReq: hasPC? 1, PC = 5384221, hasContextId? 1, contextID = 0, MemCmd: ReadReq, CmdDir: 1
recvTimingReq: hasPC? 1, PC = 5384238, hasContextId? 1, contextID = 0, MemCmd: ReadReq, CmdDir: 1
recvTimingReq: hasPC? 1, PC = 5384238, hasContextId? 1, contextID = 0, MemCmd: ReadReq, CmdDir: 1
recvTimingReq: hasPC? 1, PC = 5384238, hasContextId? 1, contextID = 0, MemCmd: ReadReq, CmdDir: 1
recvTimingReq: hasPC? 1, PC = 5384238, hasContextId? 1, contextID = 0, MemCmd: ReadReq, CmdDir: 1
recvTimingReq: hasPC? 1, PC = 5384238, hasContextId? 1, contextID = 0, MemCmd: ReadReq, CmdDir: 1
recvTimingReq: hasPC? 1, PC = 5384238, hasContextId? 1, contextID = 0, MemCmd: ReadReq, CmdDir: 1
recvTimingReq: hasPC? 1, PC = 5384238, hasContextId? 1, contextID = 0, MemCmd: ReadReq, CmdDir: 1
recvTimingReq: hasPC? 1, PC = 5384238, hasContextId? 1, contextID = 0, MemCmd: ReadReq, CmdDir: 1
recvTimingReq: hasPC? 1, PC = 5384238, hasContextId? 1, contextID = 0, MemCmd: ReadReq, CmdDir: 1
recvTimingReq: hasPC? 1, PC = 5384238, hasContextId? 1, contextID = 0, MemCmd: ReadReq, CmdDir: 1
recvTimingReq: hasPC? 1, PC = 5384238, hasContextId? 1, contextID = 0, MemCmd: ReadReq, CmdDir: 1
recvTimingReq: hasPC? 1, PC = 5384318, hasContextId? 1, contextID = 0, MemCmd: WriteReq, CmdDir: 1
recvTimingReq: hasPC? 1, PC = 4936985, hasContextId? 1, contextID = 0, MemCmd: ReadReq, CmdDir: 1
recvTimingReq: hasPC? 1, PC = 4937008, hasContextId? 1, contextID = 0, MemCmd: ReadReq, CmdDir: 1
recvTimingReq: hasPC? 1, PC = 4936976, hasContextId? 1, contextID = 0, MemCmd: WriteReq, CmdDir: 1
recvTimingReq: hasPC? 1, PC = 4936980, hasContextId? 1, contextID = 0, MemCmd: WriteReq, CmdDir: 1
recvTimingReq: hasPC? 1, PC = 4937028, hasContextId? 1, contextID = 0, MemCmd: ReadReq, CmdDir: 1
recvTimingReq: hasPC? 1, PC = 4937077, hasContextId? 1, contextID = 0, MemCmd: ReadReq, CmdDir: 1
recvTimingReq: hasPC? 1, PC = 4937274, hasContextId? 1, contextID = 0, MemCmd: ReadReq, CmdDir: 1
recvTimingReq: hasPC? 1, PC = 4937279, hasContextId? 1, contextID = 0, MemCmd: ReadReq, CmdDir: 1
recvTimingReq: hasPC? 1, PC = 4937280, hasContextId? 1, contextID = 0, MemCmd: ReadReq, CmdDir: 1
recvTimingReq: hasPC? 1, PC = 4937281, hasContextId? 1, contextID = 0, MemCmd: ReadReq, CmdDir: 1
recvTimingReq: hasPC? 1, PC = 4942048, hasContextId? 1, contextID = 0, MemCmd: ReadReq, CmdDir: 1
recvTimingReq: hasPC? 1, PC = 4937008, hasContextId? 1, contextID = 0, MemCmd: ReadReq, CmdDir: 1
recvTimingReq: hasPC? 1, PC = 4937028, hasContextId? 1, contextID = 0, MemCmd: ReadReq, CmdDir: 1
recvTimingReq: hasPC? 1, PC = 4942054, hasContextId? 1, contextID = 0, MemCmd: WriteReq, CmdDir: 1
recvTimingReq: hasPC? 1, PC = 4942084, hasContextId? 1, contextID = 0, MemCmd: WriteReq, CmdDir: 1
recvTimingReq: hasPC? 1, PC = 4942089, hasContextId? 1, contextID = 0, MemCmd: WriteReq, CmdDir: 1
recvTimingReq: hasPC? 1, PC = 4941072, hasContextId? 1, contextID = 0, MemCmd: WriteReq, CmdDir: 1
recvTimingReq: hasPC? 1, PC = 4941074, hasContextId? 1, contextID = 0, MemCmd: WriteReq, CmdDir: 1
recvTimingReq: hasPC? 1, PC = 4941076, hasContextId? 1, contextID = 0, MemCmd: WriteReq, CmdDir: 1
recvTimingReq: hasPC? 1, PC = 4941077, hasContextId? 1, contextID = 0, MemCmd: WriteReq, CmdDir: 1
recvTimingReq: hasPC? 1, PC = 4941089, hasContextId? 1, contextID = 0, MemCmd: WriteReq, CmdDir: 1
recvTimingReq: hasPC? 1, PC = 4941099, hasContextId? 1, contextID = 0, MemCmd: WriteReq, CmdDir: 1
recvTimingReq: hasPC? 1, PC = 4941154, hasContextId? 1, contextID = 0, MemCmd: ReadReq, CmdDir: 1
recvTimingReq: hasPC? 1, PC = 4941110, hasContextId? 1, contextID = 0, MemCmd: WriteReq, CmdDir: 1
recvTimingReq: hasPC? 1, PC = 4941121, hasContextId? 1, contextID = 0, MemCmd: WriteReq, CmdDir: 1
recvTimingReq: hasPC? 1, PC = 4941132, hasContextId? 1, contextID = 0, MemCmd: WriteReq, CmdDir: 1
recvTimingReq: hasPC? 1, PC = 4941166, hasContextId? 1, contextID = 0, MemCmd: WriteReq, CmdDir: 1
recvTimingReq: hasPC? 1, PC = 4941188, hasContextId? 1, contextID = 0, MemCmd: ReadReq, CmdDir: 1
recvTimingReq: hasPC? 1, PC = 4941208, hasContextId? 1, contextID = 0, MemCmd: ReadReq, CmdDir: 1
recvTimingReq: hasPC? 1, PC = 4941173, hasContextId? 1, contextID = 0, MemCmd: WriteReq, CmdDir: 1
recvTimingReq: hasPC? 1, PC = 4941183, hasContextId? 1, contextID = 0, MemCmd: WriteReq, CmdDir: 1
recvTimingReq: hasPC? 1, PC = 5169264, hasContextId? 1, contextID = 0, MemCmd: ReadReq, CmdDir: 1
recvTimingReq: hasPC? 1, PC = 5169277, hasContextId? 1, contextID = 0, MemCmd: ReadReq, CmdDir: 1
recvTimingReq: hasPC? 1, PC = 5169271, hasContextId? 1, contextID = 0, MemCmd: WriteReq, CmdDir: 1
recvTimingReq: hasPC? 1, PC = 5169289, hasContextId? 1, contextID = 0, MemCmd: ReadReq, CmdDir: 1
recvTimingReq: hasPC? 1, PC = 5169302, hasContextId? 1, contextID = 0, MemCmd: ReadReq, CmdDir: 1
recvTimingReq: hasPC? 1, PC = 4994270, hasContextId? 1, contextID = 0, MemCmd: ReadReq, CmdDir: 1
recvTimingReq: hasPC? 1, PC = 4994289, hasContextId? 1, contextID = 0, MemCmd: ReadReq, CmdDir: 1
recvTimingReq: hasPC? 1, PC = 4994308, hasContextId? 1, contextID = 0, MemCmd: ReadReq, CmdDir: 1
recvTimingReq: hasPC? 1, PC = 4994327, hasContextId? 1, contextID = 0, MemCmd: ReadReq, CmdDir: 1
recvTimingReq: hasPC? 1, PC = 5169289, hasContextId? 1, contextID = 0, MemCmd: WriteReq, CmdDir: 1
recvTimingReq: hasPC? 1, PC = 4941188, hasContextId? 1, contextID = 0, MemCmd: ReadReq, CmdDir: 1
recvTimingReq: hasPC? 1, PC = 4941208, hasContextId? 1, contextID = 0, MemCmd: ReadReq, CmdDir: 1
recvTimingReq: hasPC? 1, PC = 4941222, hasContextId? 1, contextID = 0, MemCmd: ReadReq, CmdDir: 1
recvTimingReq: hasPC? 1, PC = 4941244, hasContextId? 1, contextID = 0, MemCmd: ReadReq, CmdDir: 1
recvTimingReq: hasPC? 1, PC = 4941272, hasContextId? 1, contextID = 0, MemCmd: ReadReq, CmdDir: 1
recvTimingReq: hasPC? 1, PC = 4941244, hasContextId? 1, contextID = 0, MemCmd: ReadReq, CmdDir: 1
recvTimingReq: hasPC? 1, PC = 4941272, hasContextId? 1, contextID = 0, MemCmd: ReadReq, CmdDir: 1
recvTimingReq: hasPC? 1, PC = 4941273, hasContextId? 1, contextID = 0, MemCmd: ReadReq, CmdDir: 1
recvTimingReq: hasPC? 1, PC = 4941274, hasContextId? 1, contextID = 0, MemCmd: ReadReq, CmdDir: 1
recvTimingReq: hasPC? 1, PC = 4941276, hasContextId? 1, contextID = 0, MemCmd: ReadReq, CmdDir: 1
recvTimingReq: hasPC? 1, PC = 4941278, hasContextId? 1, contextID = 0, MemCmd: ReadReq, CmdDir: 1
[...]
recvTimingReq: hasPC? 1, PC = 4807318, hasContextId? 1, contextID = 0, MemCmd: ReadReq, CmdDir: 1
recvTimingReq: hasPC? 1, PC = 4807017, hasContextId? 1, contextID = 0, MemCmd: ReadReq, CmdDir: 1
recvTimingReq: hasPC? 1, PC = 4807029, hasContextId? 1, contextID = 0, MemCmd: ReadReq, CmdDir: 1
recvTimingReq: hasPC? 1, PC = 4807027, hasContextId? 1, contextID = 0, MemCmd: WriteReq, CmdDir: 1
recvTimingReq: hasPC? 1, PC = 4807036, hasContextId? 1, contextID = 0, MemCmd: WriteReq, CmdDir: 1
recvTimingReq: hasPC? 1, PC = 4807058, hasContextId? 1, contextID = 0, MemCmd: ReadReq, CmdDir: 1
recvTimingReq: hasPC? 1, PC = 4807040, hasContextId? 1, contextID = 0, MemCmd: WriteReq, CmdDir: 1
recvTimingReq: hasPC? 1, PC = 4807058, hasContextId? 1, contextID = 0, MemCmd: ReadReq, CmdDir: 1
recvTimingReq: hasPC? 1, PC = 4807070, hasContextId? 1, contextID = 0, MemCmd: ReadReq, CmdDir: 1
recvTimingReq: hasPC? 1, PC = 4807170, hasContextId? 1, contextID = 0, MemCmd: ReadReq, CmdDir: 1
recvTimingReq: hasPC? 1, PC = 4807174, hasContextId? 1, contextID = 0, MemCmd: WriteReq, CmdDir: 1
recvTimingReq: hasPC? 1, PC = 4807202, hasContextId? 1, contextID = 0, MemCmd: ReadReq, CmdDir: 1
recvTimingReq: hasPC? 1, PC = 4807203, hasContextId? 1, contextID = 0, MemCmd: ReadReq, CmdDir: 1
recvTimingReq: hasPC? 1, PC = 4807204, hasContextId? 1, contextID = 0, MemCmd: ReadReq, CmdDir: 1
recvTimingReq: hasPC? 1, PC = 4807206, hasContextId? 1, contextID = 0, MemCmd: ReadReq, CmdDir: 1
recvTimingReq: hasPC? 1, PC = 4809741, hasContextId? 1, contextID = 0, MemCmd: ReadReq, CmdDir: 1
recvTimingReq: hasPC? 1, PC = 4809767, hasContextId? 1, contextID = 0, MemCmd: ReadReq, CmdDir: 1
recvTimingReq: hasPC? 1, PC = 4809776, hasContextId? 1, contextID = 0, MemCmd: ReadReq, CmdDir: 1
recvTimingReq: hasPC? 1, PC = 4199379, hasContextId? 1, contextID = 0, MemCmd: ReadReq, CmdDir: 1
recvTimingReq: hasPC? 1, PC = 4199387, hasContextId? 1, contextID = 0, MemCmd: ReadReq, CmdDir: 1
recvTimingReq: hasPC? 1, PC = 4199380, hasContextId? 1, contextID = 0, MemCmd: WriteReq, CmdDir: 1
recvTimingReq: hasPC? 1, PC = 4809741, hasContextId? 1, contextID = 0, MemCmd: ReadReq, CmdDir: 1
recvTimingReq: hasPC? 1, PC = 5461024, hasContextId? 1, contextID = 0, MemCmd: ReadReq, CmdDir: 1
recvTimingReq: hasPC? 1, PC = 4902148, hasContextId? 1, contextID = 0, MemCmd: ReadReq, CmdDir: 1
recvTimingReq: hasPC? 1, PC = 4845136, hasContextId? 1, contextID = 0, MemCmd: ReadReq, CmdDir: 1
recvTimingReq: hasPC? 1, PC = 4845144, hasContextId? 1, contextID = 0, MemCmd: ReadReq, CmdDir: 1
recvTimingReq: hasPC? 1, PC = 4844944, hasContextId? 1, contextID = 0, MemCmd: ReadReq, CmdDir: 1
recvTimingReq: hasPC? 1, PC = 4845118, hasContextId? 1, contextID = 0, MemCmd: ReadReq, CmdDir: 1
recvTimingReq: hasPC? 1, PC = 4844973, hasContextId? 1, contextID = 0, MemCmd: ReadReq, CmdDir: 1
recvTimingReq: hasPC? 1, PC = 4845104, hasContextId? 1, contextID = 0, MemCmd: ReadReq, CmdDir: 1
recvTimingReq: hasPC? 1, PC = 4845108, hasContextId? 1, contextID = 0, MemCmd: ReadReq, CmdDir: 1
recvTimingReq: hasPC? 1, PC = 4845007, hasContextId? 1, contextID = 0, MemCmd: ReadReq, CmdDir: 1
recvTimingReq: hasPC? 1, PC = 4845045, hasContextId? 1, contextID = 0, MemCmd: ReadReq, CmdDir: 1
recvTimingReq: hasPC? 1, PC = 4845072, hasContextId? 1, contextID = 0, MemCmd: ReadReq, CmdDir: 1
recvTimingReq: hasPC? 1, PC = 4845076, hasContextId? 1, contextID = 0, MemCmd: ReadReq, CmdDir: 1
recvTimingReq: hasPC? 1, PC = 4845086, hasContextId? 1, contextID = 0, MemCmd: ReadReq, CmdDir: 1
recvTimingReq: hasPC? 1, PC = 4845104, hasContextId? 1, contextID = 0, MemCmd: ReadReq, CmdDir: 1
recvTimingReq: hasPC? 1, PC = 4845108, hasContextId? 1, contextID = 0, MemCmd: ReadReq, CmdDir: 1
recvTimingReq: hasPC? 1, PC = 4845014, hasContextId? 1, contextID = 0, MemCmd: WriteReq, CmdDir: 1
recvTimingReq: hasPC? 1, PC = 4845045, hasContextId? 1, contextID = 0, MemCmd: WriteReq, CmdDir: 1
recvTimingReq: hasPC? 1, PC = 4905392, hasContextId? 1, contextID = 0, MemCmd: WriteReq, CmdDir: 1
recvTimingReq: hasPC? 1, PC = 4905394, hasContextId? 1, contextID = 0, MemCmd: WriteReq, CmdDir: 1
recvTimingReq: hasPC? 1, PC = 4905399, hasContextId? 1, contextID = 0, MemCmd: WriteReq, CmdDir: 1
recvTimingReq: hasPC? 1, PC = 4905400, hasContextId? 1, contextID = 0, MemCmd: WriteReq, CmdDir: 1
recvTimingReq: hasPC? 1, PC = 4905405, hasContextId? 1, contextID = 0, MemCmd: ReadReq, CmdDir: 1
recvTimingReq: hasPC? 1, PC = 4905412, hasContextId? 1, contextID = 0, MemCmd: ReadReq, CmdDir: 1
recvTimingReq: hasPC? 1, PC = 4905453, hasContextId? 1, contextID = 0, MemCmd: ReadReq, CmdDir: 1
recvTimingReq: hasPC? 1, PC = 4905494, hasContextId? 1, contextID = 0, MemCmd: ReadReq, CmdDir: 1
recvTimingReq: hasPC? 1, PC = 4905515, hasContextId? 1, contextID = 0, MemCmd: ReadReq, CmdDir: 1
recvTimingReq: hasPC? 1, PC = 4905522, hasContextId? 1, contextID = 0, MemCmd: ReadReq, CmdDir: 1
recvTimingReq: hasPC? 1, PC = 4905526, hasContextId? 1, contextID = 0, MemCmd: ReadReq, CmdDir: 1
recvTimingReq: hasPC? 1, PC = 4905500, hasContextId? 1, contextID = 0, MemCmd: WriteReq, CmdDir: 1
recvTimingReq: hasPC? 1, PC = 4905800, hasContextId? 1, contextID = 0, MemCmd: ReadReq, CmdDir: 1
recvTimingReq: hasPC? 1, PC = 4905804, hasContextId? 1, contextID = 0, MemCmd: ReadReq, CmdDir: 1
recvTimingReq: hasPC? 1, PC = 4905545, hasContextId? 1, contextID = 0, MemCmd: ReadReq, CmdDir: 1
recvTimingReq: hasPC? 1, PC = 4905556, hasContextId? 1, contextID = 0, MemCmd: ReadReq, CmdDir: 1
recvTimingReq: hasPC? 1, PC = 4905572, hasContextId? 1, contextID = 0, MemCmd: ReadReq, CmdDir: 1
recvTimingReq: hasPC? 1, PC = 4905584, hasContextId? 1, contextID = 0, MemCmd: ReadReq, CmdDir: 1
recvTimingReq: hasPC? 1, PC = 4905532, hasContextId? 1, contextID = 0, MemCmd: WriteReq, CmdDir: 1
recvTimingReq: hasPC? 1, PC = 4905494, hasContextId? 1, contextID = 0, MemCmd: ReadReq, CmdDir: 1
recvTimingReq: hasPC? 1, PC = 4905515, hasContextId? 1, contextID = 0, MemCmd: ReadReq, CmdDir: 1
recvTimingReq: hasPC? 1, PC = 4905545, hasContextId? 1, contextID = 0, MemCmd: ReadReq, CmdDir: 1
recvTimingReq: hasPC? 1, PC = 4905522, hasContextId? 1, contextID = 0, MemCmd: ReadReq, CmdDir: 1
recvTimingReq: hasPC? 1, PC = 4905526, hasContextId? 1, contextID = 0, MemCmd: ReadReq, CmdDir: 1
recvTimingReq: hasPC? 1, PC = 4905556, hasContextId? 1, contextID = 0, MemCmd: ReadReq, CmdDir: 1
recvTimingReq: hasPC? 1, PC = 4905572, hasContextId? 1, contextID = 0, MemCmd: ReadReq, CmdDir: 1
recvTimingReq: hasPC? 1, PC = 4905500, hasContextId? 1, contextID = 0, MemCmd: WriteReq, CmdDir: 1
recvTimingReq: hasPC? 1, PC = 4905800, hasContextId? 1, contextID = 0, MemCmd: ReadReq, CmdDir: 1
recvTimingReq: hasPC? 1, PC = 4905804, hasContextId? 1, contextID = 0, MemCmd: ReadReq, CmdDir: 1
recvTimingReq: hasPC? 1, PC = 4905545, hasContextId? 1, contextID = 0, MemCmd: ReadReq, CmdDir: 1
recvTimingReq: hasPC? 1, PC = 4905494, hasContextId? 1, contextID = 0, MemCmd: ReadReq, CmdDir: 1
recvTimingReq: hasPC? 1, PC = 4905800, hasContextId? 1, contextID = 0, MemCmd: ReadReq, CmdDir: 1
recvTimingReq: hasPC? 1, PC = 4905804, hasContextId? 1, contextID = 0, MemCmd: ReadReq, CmdDir: 1
recvTimingReq: hasPC? 1, PC = 4905532, hasContextId? 1, contextID = 0, MemCmd: WriteReq, CmdDir: 1
recvTimingReq: hasPC? 1, PC = 4905545, hasContextId? 1, contextID = 0, MemCmd: ReadReq, CmdDir: 1
recvTimingReq: hasPC? 1, PC = 4905500, hasContextId? 1, contextID = 0, MemCmd: WriteReq, CmdDir: 1
recvTimingReq: hasPC? 1, PC = 4905532, hasContextId? 1, contextID = 0, MemCmd: WriteReq, CmdDir: 1
recvTimingReq: hasPC? 1, PC = 4905572, hasContextId? 1, contextID = 0, MemCmd: ReadReq, CmdDir: 1
recvTimingReq: hasPC? 1, PC = 4905556, hasContextId? 1, contextID = 0, MemCmd: ReadReq, CmdDir: 1
recvTimingReq: hasPC? 1, PC = 4905584, hasContextId? 1, contextID = 0, MemCmd: ReadReq, CmdDir: 1
recvTimingReq: hasPC? 1, PC = 4905610, hasContextId? 1, contextID = 0, MemCmd: ReadReq, CmdDir: 1
recvTimingReq: hasPC? 1, PC = 4905627, hasContextId? 1, contextID = 0, MemCmd: ReadReq, CmdDir: 1
recvTimingReq: hasPC? 1, PC = 4905656, hasContextId? 1, contextID = 0, MemCmd: ReadReq, CmdDir: 1
recvTimingReq: hasPC? 1, PC = 4905639, hasContextId? 1, contextID = 0, MemCmd: ReadReq, CmdDir: 1
recvTimingReq: hasPC? 1, PC = 4905770, hasContextId? 1, contextID = 0, MemCmd: ReadReq, CmdDir: 1
recvTimingReq: hasPC? 1, PC = 4905790, hasContextId? 1, contextID = 0, MemCmd: ReadReq, CmdDir: 1
recvTimingReq: hasPC? 1, PC = 4905791, hasContextId? 1, contextID = 0, MemCmd: ReadReq, CmdDir: 1
recvTimingReq: hasPC? 1, PC = 4905792, hasContextId? 1, contextID = 0, MemCmd: ReadReq, CmdDir: 1
recvTimingReq: hasPC? 1, PC = 4905760, hasContextId? 1, contextID = 0, MemCmd: WriteReq, CmdDir: 1
recvTimingReq: hasPC? 1, PC = 4905584, hasContextId? 1, contextID = 0, MemCmd: ReadReq, CmdDir: 1
recvTimingReq: hasPC? 1, PC = 4905610, hasContextId? 1, contextID = 0, MemCmd: ReadReq, CmdDir: 1
recvTimingReq: hasPC? 1, PC = 4905627, hasContextId? 1, contextID = 0, MemCmd: ReadReq, CmdDir: 1
recvTimingReq: hasPC? 1, PC = 4905639, hasContextId? 1, contextID = 0, MemCmd: ReadReq, CmdDir: 1
recvTimingReq: hasPC? 1, PC = 4905656, hasContextId? 1, contextID = 0, MemCmd: ReadReq, CmdDir: 1
recvTimingReq: hasPC? 1, PC = 4905671, hasContextId? 1, contextID = 0, MemCmd: ReadReq, CmdDir: 1
recvTimingReq: hasPC? 1, PC = 4905682, hasContextId? 1, contextID = 0, MemCmd: ReadReq, CmdDir: 1
recvTimingReq: hasPC? 1, PC = 4905693, hasContextId? 1, contextID = 0, MemCmd: ReadReq, CmdDir: 1
recvTimingReq: hasPC? 1, PC = 4905707, hasContextId? 1, contextID = 0, MemCmd: ReadReq, CmdDir: 1
recvTimingReq: hasPC? 1, PC = 4905716, hasContextId? 1, contextID = 0, MemCmd: ReadReq, CmdDir: 1
recvTimingReq: hasPC? 1, PC = 4905726, hasContextId? 1, contextID = 0, MemCmd: ReadReq, CmdDir: 1
recvTimingReq: hasPC? 1, PC = 4905770, hasContextId? 1, contextID = 0, MemCmd: ReadReq, CmdDir: 1
recvTimingReq: hasPC? 1, PC = 4905740, hasContextId? 1, contextID = 0, MemCmd: ReadReq, CmdDir: 1
recvTimingReq: hasPC? 1, PC = 4905671, hasContextId? 1, contextID = 0, MemCmd: WriteReq, CmdDir: 1
recvTimingReq: hasPC? 1, PC = 4905689, hasContextId? 1, contextID = 0, MemCmd: WriteReq, CmdDir: 1
recvTimingReq: hasPC? 1, PC = 4905700, hasContextId? 1, contextID = 0, MemCmd: WriteReq, CmdDir: 1
recvTimingReq: hasPC? 1, PC = 4905875, hasContextId? 1, contextID = 0, MemCmd: ReadReq, CmdDir: 1
recvTimingReq: hasPC? 1, PC = 4905881, hasContextId? 1, contextID = 0, MemCmd: ReadReq, CmdDir: 1
recvTimingReq: hasPC? 1, PC = 4905909, hasContextId? 1, contextID = 0, MemCmd: ReadReq, CmdDir: 1
recvTimingReq: hasPC? 1, PC = 4905879, hasContextId? 1, contextID = 0, MemCmd: WriteReq, CmdDir: 1
recvTimingReq: hasPC? 1, PC = 4905888, hasContextId? 1, contextID = 0, MemCmd: WriteReq, CmdDir: 1
recvTimingReq: hasPC? 1, PC = 4905895, hasContextId? 1, contextID = 0, MemCmd: WriteReq, CmdDir: 1
recvTimingReq: hasPC? 1, PC = 4905902, hasContextId? 1, contextID = 0, MemCmd: WriteReq, CmdDir: 1
recvTimingReq: hasPC? 1, PC = 4905936, hasContextId? 1, contextID = 0, MemCmd: ReadReq, CmdDir: 1
recvTimingReq: hasPC? 1, PC = 4905916, hasContextId? 1, contextID = 0, MemCmd: WriteReq, CmdDir: 1
recvTimingReq: hasPC? 1, PC = 4905726, hasContextId? 1, contextID = 0, MemCmd: ReadReq, CmdDir: 1
recvTimingReq: hasPC? 1, PC = 4905770, hasContextId? 1, contextID = 0, MemCmd: ReadReq, CmdDir: 1
recvTimingReq: hasPC? 1, PC = 4905740, hasContextId? 1, contextID = 0, MemCmd: ReadReq, CmdDir: 1
recvTimingReq: hasPC? 1, PC = 4905790, hasContextId? 1, contextID = 0, MemCmd: ReadReq, CmdDir: 1
recvTimingReq: hasPC? 1, PC = 4905740, hasContextId? 1, contextID = 0, MemCmd: WriteReq, CmdDir: 1
recvTimingReq: hasPC? 1, PC = 4896048, hasContextId? 1, contextID = 0, MemCmd: WriteReq, CmdDir: 1
recvTimingReq: hasPC? 1, PC = 4896052, hasContextId? 1, contextID = 0, MemCmd: WriteReq, CmdDir: 1
recvTimingReq: hasPC? 1, PC = 4909744, hasContextId? 1, contextID = 0, MemCmd: WriteReq, CmdDir: 1
recvTimingReq: hasPC? 1, PC = 4909749, hasContextId? 1, contextID = 0, MemCmd: WriteReq, CmdDir: 1
recvTimingReq: hasPC? 1, PC = 4909753, hasContextId? 1, contextID = 0, MemCmd: WriteReq, CmdDir: 1
recvTimingReq: hasPC? 1, PC = 4909754, hasContextId? 1, contextID = 0, MemCmd: ReadReq, CmdDir: 1
recvTimingReq: hasPC? 1, PC = 4909776, hasContextId? 1, contextID = 0, MemCmd: ReadReq, CmdDir: 1
recvTimingReq: hasPC? 1, PC = 4909790, hasContextId? 1, contextID = 0, MemCmd: ReadReq, CmdDir: 1
recvTimingReq: hasPC? 1, PC = 4909764, hasContextId? 1, contextID = 0, MemCmd: ReadReq, CmdDir: 1
recvTimingReq: hasPC? 1, PC = 4909764, hasContextId? 1, contextID = 0, MemCmd: WriteReq, CmdDir: 1
recvTimingReq: hasPC? 1, PC = 4904497, hasContextId? 1, contextID = 0, MemCmd: ReadReq, CmdDir: 1
recvTimingReq: hasPC? 1, PC = 4904504, hasContextId? 1, contextID = 0, MemCmd: ReadReq, CmdDir: 1
recvTimingReq: hasPC? 1, PC = 4904513, hasContextId? 1, contextID = 0, MemCmd: ReadReq, CmdDir: 1
recvTimingReq: hasPC? 1, PC = 4904523, hasContextId? 1, contextID = 0, MemCmd: ReadReq, CmdDir: 1
recvTimingReq: hasPC? 1, PC = 4904496, hasContextId? 1, contextID = 0, MemCmd: WriteReq, CmdDir: 1
recvTimingReq: hasPC? 1, PC = 4904530, hasContextId? 1, contextID = 0, MemCmd: ReadReq, CmdDir: 1
recvTimingReq: hasPC? 1, PC = 4904534, hasContextId? 1, contextID = 0, MemCmd: ReadReq, CmdDir: 1
recvTimingReq: hasPC? 1, PC = 4893143, hasContextId? 1, contextID = 0, MemCmd: ReadReq, CmdDir: 1
recvTimingReq: hasPC? 1, PC = 4904559, hasContextId? 1, contextID = 0, MemCmd: ReadReq, CmdDir: 1
recvTimingReq: hasPC? 1, PC = 4904563, hasContextId? 1, contextID = 0, MemCmd: ReadReq, CmdDir: 1
recvTimingReq: hasPC? 1, PC = 4904582, hasContextId? 1, contextID = 0, MemCmd: ReadReq, CmdDir: 1
recvTimingReq: hasPC? 1, PC = 4904583, hasContextId? 1, contextID = 0, MemCmd: ReadReq, CmdDir: 1
recvTimingReq: hasPC? 1, PC = 4898431, hasContextId? 1, contextID = 0, MemCmd: ReadReq, CmdDir: 1
recvTimingReq: hasPC? 1, PC = 4904569, hasContextId? 1, contextID = 0, MemCmd: WriteReq, CmdDir: 1
recvTimingReq: hasPC? 1, PC = 4909776, hasContextId? 1, contextID = 0, MemCmd: ReadReq, CmdDir: 1
recvTimingReq: hasPC? 1, PC = 4909790, hasContextId? 1, contextID = 0, MemCmd: ReadReq, CmdDir: 1
recvTimingReq: hasPC? 1, PC = 4909790, hasContextId? 1, contextID = 0, MemCmd: ReadReq, CmdDir: 1
recvTimingReq: hasPC? 1, PC = 4909804, hasContextId? 1, contextID = 0, MemCmd: WriteReq, CmdDir: 1
recvTimingReq: hasPC? 1, PC = 4909887, hasContextId? 1, contextID = 0, MemCmd: ReadReq, CmdDir: 1
recvTimingReq: hasPC? 1, PC = 4909826, hasContextId? 1, contextID = 0, MemCmd: WriteReq, CmdDir: 1
recvTimingReq: hasPC? 1, PC = 4909830, hasContextId? 1, contextID = 0, MemCmd: WriteReq, CmdDir: 1
recvTimingReq: hasPC? 1, PC = 4909834, hasContextId? 1, contextID = 0, MemCmd: WriteReq, CmdDir: 1
recvTimingReq: hasPC? 1, PC = 4909836, hasContextId? 1, contextID = 0, MemCmd: WriteReq, CmdDir: 1
recvTimingReq: hasPC? 1, PC = 4909844, hasContextId? 1, contextID = 0, MemCmd: WriteReq, CmdDir: 1
recvTimingReq: hasPC? 1, PC = 4909855, hasContextId? 1, contextID = 0, MemCmd: WriteReq, CmdDir: 1
recvTimingReq: hasPC? 1, PC = 4909863, hasContextId? 1, contextID = 0, MemCmd: WriteReq, CmdDir: 1
recvTimingReq: hasPC? 1, PC = 4909871, hasContextId? 1, contextID = 0, MemCmd: WriteReq, CmdDir: 1
recvTimingReq: hasPC? 1, PC = 4909879, hasContextId? 1, contextID = 0, MemCmd: WriteReq, CmdDir: 1
recvTimingReq: hasPC? 1, PC = 4909888, hasContextId? 1, contextID = 0, MemCmd: ReadReq, CmdDir: 1
recvTimingReq: hasPC? 1, PC = 4909889, hasContextId? 1, contextID = 0, MemCmd: ReadReq, CmdDir: 1
recvTimingReq: hasPC? 1, PC = 4909891, hasContextId? 1, contextID = 0, MemCmd: ReadReq, CmdDir: 1
recvTimingReq: hasPC? 1, PC = 4901999, hasContextId? 1, contextID = 0, MemCmd: ReadReq, CmdDir: 1
recvTimingReq: hasPC? 1, PC = 4902016, hasContextId? 1, contextID = 0, MemCmd: ReadReq, CmdDir: 1
recvTimingReq: hasPC? 1, PC = 4902022, hasContextId? 1, contextID = 0, MemCmd: ReadReq, CmdDir: 1
recvTimingReq: hasPC? 1, PC = 4896062, hasContextId? 1, contextID = 0, MemCmd: ReadReq, CmdDir: 1
recvTimingReq: hasPC? 1, PC = 4896093, hasContextId? 1, contextID = 0, MemCmd: ReadReq, CmdDir: 1
recvTimingReq: hasPC? 1, PC = 4896094, hasContextId? 1, contextID = 0, MemCmd: ReadReq, CmdDir: 1
recvTimingReq: hasPC? 1, PC = 4904663, hasContextId? 1, contextID = 0, MemCmd: ReadReq, CmdDir: 1
recvTimingReq: hasPC? 1, PC = 4904674, hasContextId? 1, contextID = 0, MemCmd: ReadReq, CmdDir: 1
recvTimingReq: hasPC? 1, PC = 4896066, hasContextId? 1, contextID = 0, MemCmd: WriteReq, CmdDir: 1
recvTimingReq: hasPC? 1, PC = 4896070, hasContextId? 1, contextID = 0, MemCmd: WriteReq, CmdDir: 1
recvTimingReq: hasPC? 1, PC = 4896074, hasContextId? 1, contextID = 0, MemCmd: WriteReq, CmdDir: 1
recvTimingReq: hasPC? 1, PC = 4896078, hasContextId? 1, contextID = 0, MemCmd: WriteReq, CmdDir: 1
recvTimingReq: hasPC? 1, PC = 4905770, hasContextId? 1, contextID = 0, MemCmd: ReadReq, CmdDir: 1
recvTimingReq: hasPC? 1, PC = 4896082, hasContextId? 1, contextID = 0, MemCmd: WriteReq, CmdDir: 1
recvTimingReq: hasPC? 1, PC = 4896086, hasContextId? 1, contextID = 0, MemCmd: WriteReq, CmdDir: 1
recvTimingReq: hasPC? 1, PC = 4905936, hasContextId? 1, contextID = 0, MemCmd: ReadReq, CmdDir: 1
recvTimingReq: hasPC? 1, PC = 4905952, hasContextId? 1, contextID = 0, MemCmd: ReadReq, CmdDir: 1
recvTimingReq: hasPC? 1, PC = 4905970, hasContextId? 1, contextID = 0, MemCmd: ReadReq, CmdDir: 1
recvTimingReq: hasPC? 1, PC = 4905952, hasContextId? 1, contextID = 0, MemCmd: WriteReq, CmdDir: 1
recvTimingReq: hasPC? 1, PC = 4905962, hasContextId? 1, contextID = 0, MemCmd: WriteReq, CmdDir: 1
recvTimingReq: hasPC? 1, PC = 4905990, hasContextId? 1, contextID = 0, MemCmd: ReadReq, CmdDir: 1
recvTimingReq: hasPC? 1, PC = 4906008, hasContextId? 1, contextID = 0, MemCmd: ReadReq, CmdDir: 1
recvTimingReq: hasPC? 1, PC = 4905990, hasContextId? 1, contextID = 0, MemCmd: WriteReq, CmdDir: 1
recvTimingReq: hasPC? 1, PC = 4905770, hasContextId? 1, contextID = 0, MemCmd: ReadReq, CmdDir: 1
recvTimingReq: hasPC? 1, PC = 4905790, hasContextId? 1, contextID = 0, MemCmd: ReadReq, CmdDir: 1
recvTimingReq: hasPC? 1, PC = 4905791, hasContextId? 1, contextID = 0, MemCmd: ReadReq, CmdDir: 1
recvTimingReq: hasPC? 1, PC = 4905792, hasContextId? 1, contextID = 0, MemCmd: ReadReq, CmdDir: 1
recvTimingReq: hasPC? 1, PC = 4905760, hasContextId? 1, contextID = 0, MemCmd: WriteReq, CmdDir: 1
recvTimingReq: hasPC? 1, PC = 4905584, hasContextId? 1, contextID = 0, MemCmd: ReadReq, CmdDir: 1
recvTimingReq: hasPC? 1, PC = 4905610, hasContextId? 1, contextID = 0, MemCmd: ReadReq, CmdDir: 1
recvTimingReq: hasPC? 1, PC = 4905627, hasContextId? 1, contextID = 0, MemCmd: ReadReq, CmdDir: 1
recvTimingReq: hasPC? 1, PC = 4905656, hasContextId? 1, contextID = 0, MemCmd: ReadReq, CmdDir: 1
recvTimingReq: hasPC? 1, PC = 4905770, hasContextId? 1, contextID = 0, MemCmd: ReadReq, CmdDir: 1
recvTimingReq: hasPC? 1, PC = 4905790, hasContextId? 1, contextID = 0, MemCmd: ReadReq, CmdDir: 1
recvTimingReq: hasPC? 1, PC = 4905791, hasContextId? 1, contextID = 0, MemCmd: ReadReq, CmdDir: 1
recvTimingReq: hasPC? 1, PC = 4905792, hasContextId? 1, contextID = 0, MemCmd: ReadReq, CmdDir: 1
recvTimingReq: hasPC? 1, PC = 4905760, hasContextId? 1, contextID = 0, MemCmd: WriteReq, CmdDir: 1
recvTimingReq: hasPC? 1, PC = 4905794, hasContextId? 1, contextID = 0, MemCmd: ReadReq, CmdDir: 1
recvTimingReq: hasPC? 1, PC = 4905796, hasContextId? 1, contextID = 0, MemCmd: ReadReq, CmdDir: 1
recvTimingReq: hasPC? 1, PC = 4882648, hasContextId? 1, contextID = 0, MemCmd: ReadReq, CmdDir: 1
recvTimingReq: hasPC? 1, PC = 4845086, hasContextId? 1, contextID = 0, MemCmd: ReadReq, CmdDir: 1
recvTimingReq: hasPC? 1, PC = 4845063, hasContextId? 1, contextID = 0, MemCmd: WriteReq, CmdDir: 1
Exiting @ tick 94388500 because target called exit()
