gem5 Simulator System.  http://gem5.org
gem5 is copyrighted software; use the --copyright option for details.

gem5 compiled Apr 18 2017 12:29:13
gem5 started Apr 18 2017 12:30:43
gem5 executing on shai.cse.psu.edu, pid 8081
command line: /home/mdl/mjl5868/GEM5/Mem2D/New_Version/2dmem_v0_1_addaddrbit/V0_1_AddAddrBit/gem5/build/X86/gem5.opt --redirect-stdout --stdout-file=build_test_Apr16_2017.gemout --redirect-stderr --stderr-file=build_test_Apr16_2017.gemerr --stats-file=build_test_Apr16_2017.stat /home/mdl/mjl5868/GEM5/Mem2D/New_Version/2dmem_v0_1_addaddrbit/V0_1_AddAddrBit/gem5/configs/example/se.py --output=build_test_Apr16_2017.appout --errout=build_test_Apr16_2017.apperr -c /home/mdl/mjl5868/GEM5/Mem2D/New_Version/2dmem_v0_1_addaddrbit/V0_1_AddAddrBit/Run_test_pbs/Vector_test/testscl-bin --caches --l2cache --cpu-type=detailed

Global frequency set at 1000000000000 ticks per second
MJL_Error: Could not open test input file!
After reading the file
**** REAL SIMULATION ****
info: Entering event queue @ 0.  Starting simulation...
system.cpu.dcache.cpu_side::recvTimingReq: hasPC? 1, PC = 4194757, hasContextId? 1, contextID = 0, Size = 8, MemCmd: ReadReq, needsResponse? Y
Packet's [Addr, Dir, RespCmd]: [1170848, 1, 2]
system.cpu.dcache.cpu_side::sendTimingResp: hasPC? 1, PC = 4194757, hasContextId? 1, contextID = 0, time = 91500, Addr = 1170848, Dir = 1, Cmd = 2, InList? Y
system.cpu.dcache.cpu_side::sendTimingResp: hasPC? 1, PC = 4194757, hasContextId? 1, contextID = 0
system.cpu.dcache.cpu_side::recvTimingReq: hasPC? 1, PC = 4194765, hasContextId? 1, contextID = 0, Size = 8, MemCmd: WriteReq, needsResponse? Y
Packet's [Addr, Dir, RespCmd]: [1170840, 1, 5]
system.cpu.dcache.cpu_side::sendTimingResp: hasPC? 1, PC = 4194765, hasContextId? 1, contextID = 0, time = 92500, Addr = 1170840, Dir = 1, Cmd = 5, InList? Y
system.cpu.dcache.cpu_side::sendTimingResp: hasPC? 1, PC = 4194765, hasContextId? 1, contextID = 0
system.cpu.dcache.cpu_side::recvTimingReq: hasPC? 1, PC = 4194766, hasContextId? 1, contextID = 0, Size = 8, MemCmd: WriteReq, needsResponse? Y
Packet's [Addr, Dir, RespCmd]: [1170832, 1, 5]
system.cpu.dcache.cpu_side::sendTimingResp: hasPC? 1, PC = 4194766, hasContextId? 1, contextID = 0, time = 93000, Addr = 1170832, Dir = 1, Cmd = 5, InList? Y
system.cpu.dcache.cpu_side::sendTimingResp: hasPC? 1, PC = 4194766, hasContextId? 1, contextID = 0
system.cpu.dcache.cpu_side::recvTimingReq: hasPC? 1, PC = 4194788, hasContextId? 1, contextID = 0, Size = 8, MemCmd: WriteReq, needsResponse? Y
Packet's [Addr, Dir, RespCmd]: [1170824, 1, 5]
system.cpu.dcache.cpu_side::sendTimingResp: hasPC? 1, PC = 4194788, hasContextId? 1, contextID = 0, time = 93500, Addr = 1170824, Dir = 1, Cmd = 5, InList? Y
system.cpu.dcache.cpu_side::sendTimingResp: hasPC? 1, PC = 4194788, hasContextId? 1, contextID = 0
system.cpu.dcache.cpu_side::recvTimingReq: hasPC? 1, PC = 4546768, hasContextId? 1, contextID = 0, Size = 8, MemCmd: WriteReq, needsResponse? Y
Packet's [Addr, Dir, RespCmd]: [1170816, 1, 5]
system.cpu.dcache.cpu_side::sendTimingResp: hasPC? 1, PC = 4546768, hasContextId? 1, contextID = 0, time = 186000, Addr = 1170816, Dir = 1, Cmd = 5, InList? Y
system.cpu.dcache.cpu_side::sendTimingResp: hasPC? 1, PC = 4546768, hasContextId? 1, contextID = 0
system.cpu.dcache.cpu_side::recvTimingReq: hasPC? 1, PC = 4546775, hasContextId? 1, contextID = 0, Size = 8, MemCmd: WriteReq, needsResponse? Y
Packet's [Addr, Dir, RespCmd]: [1170808, 1, 5]
system.cpu.dcache.cpu_side::recvTimingReq: hasPC? 1, PC = 4546851, hasContextId? 1, contextID = 0, Size = 8, MemCmd: ReadReq, needsResponse? Y
Packet's [Addr, Dir, RespCmd]: [1170832, 1, 2]
system.cpu.dcache.cpu_side::sendTimingResp: hasPC? 1, PC = 4546851, hasContextId? 1, contextID = 0, time = 266000, Addr = 1170832, Dir = 1, Cmd = 2, InList? Y
system.cpu.dcache.cpu_side::sendTimingResp: hasPC? 1, PC = 4546851, hasContextId? 1, contextID = 0
system.cpu.dcache.cpu_side::sendTimingResp: hasPC? 1, PC = 4546775, hasContextId? 1, contextID = 0, time = 186500, Addr = 1170808, Dir = 1, Cmd = 5, InList? Y
system.cpu.dcache.cpu_side::sendTimingResp: hasPC? 1, PC = 4546775, hasContextId? 1, contextID = 0
system.cpu.dcache.cpu_side::recvTimingReq: hasPC? 1, PC = 4546777, hasContextId? 1, contextID = 0, Size = 8, MemCmd: WriteReq, needsResponse? Y
Packet's [Addr, Dir, RespCmd]: [1170800, 1, 5]
system.cpu.dcache.cpu_side::sendTimingResp: hasPC? 1, PC = 4546777, hasContextId? 1, contextID = 0, time = 187000, Addr = 1170800, Dir = 1, Cmd = 5, InList? Y
system.cpu.dcache.cpu_side::sendTimingResp: hasPC? 1, PC = 4546777, hasContextId? 1, contextID = 0
system.cpu.dcache.cpu_side::recvTimingReq: hasPC? 1, PC = 4546779, hasContextId? 1, contextID = 0, Size = 8, MemCmd: WriteReq, needsResponse? Y
Packet's [Addr, Dir, RespCmd]: [1170792, 1, 5]
system.cpu.dcache.cpu_side::sendTimingResp: hasPC? 1, PC = 4546779, hasContextId? 1, contextID = 0, time = 187500, Addr = 1170792, Dir = 1, Cmd = 5, InList? Y
system.cpu.dcache.cpu_side::sendTimingResp: hasPC? 1, PC = 4546779, hasContextId? 1, contextID = 0
system.cpu.dcache.cpu_side::recvTimingReq: hasPC? 1, PC = 4546784, hasContextId? 1, contextID = 0, Size = 8, MemCmd: WriteReq, needsResponse? Y
Packet's [Addr, Dir, RespCmd]: [1170784, 1, 5]
system.cpu.dcache.cpu_side::recvTimingReq: hasPC? 1, PC = 4546851, hasContextId? 1, contextID = 0, Size = 8, MemCmd: ReadReq, needsResponse? Y
Packet's [Addr, Dir, RespCmd]: [1170832, 1, 2]
system.cpu.dcache.cpu_side::sendTimingResp: hasPC? 1, PC = 4546784, hasContextId? 1, contextID = 0, time = 188000, Addr = 1170784, Dir = 1, Cmd = 5, InList? Y
system.cpu.dcache.cpu_side::sendTimingResp: hasPC? 1, PC = 4546784, hasContextId? 1, contextID = 0
system.cpu.dcache.cpu_side::recvTimingReq: hasPC? 1, PC = 4546788, hasContextId? 1, contextID = 0, Size = 8, MemCmd: WriteReq, needsResponse? Y
Packet's [Addr, Dir, RespCmd]: [1170776, 1, 5]
system.cpu.dcache.cpu_side::sendTimingResp: hasPC? 1, PC = 4546851, hasContextId? 1, contextID = 0, time = 271000, Addr = 1170832, Dir = 1, Cmd = 2, InList? Y
system.cpu.dcache.cpu_side::sendTimingResp: hasPC? 1, PC = 4546851, hasContextId? 1, contextID = 0
system.cpu.dcache.cpu_side::sendTimingResp: hasPC? 1, PC = 4546788, hasContextId? 1, contextID = 0, time = 188500, Addr = 1170776, Dir = 1, Cmd = 5, InList? Y
system.cpu.dcache.cpu_side::sendTimingResp: hasPC? 1, PC = 4546788, hasContextId? 1, contextID = 0
system.cpu.dcache.cpu_side::recvTimingReq: hasPC? 1, PC = 4546802, hasContextId? 1, contextID = 0, Size = 8, MemCmd: WriteReq, needsResponse? Y
Packet's [Addr, Dir, RespCmd]: [1170168, 1, 5]
system.cpu.dcache.cpu_side::recvTimingReq: hasPC? 1, PC = 4546880, hasContextId? 1, contextID = 0, Size = 8, MemCmd: ReadReq, needsResponse? Y
Packet's [Addr, Dir, RespCmd]: [1170872, 1, 2]
system.cpu.dcache.cpu_side::sendTimingResp: hasPC? 1, PC = 4546880, hasContextId? 1, contextID = 0, time = 344500, Addr = 1170872, Dir = 1, Cmd = 2, InList? Y
system.cpu.dcache.cpu_side::sendTimingResp: hasPC? 1, PC = 4546880, hasContextId? 1, contextID = 0
system.cpu.dcache.cpu_side::sendTimingResp: hasPC? 1, PC = 4546802, hasContextId? 1, contextID = 0, time = 189500, Addr = 1170168, Dir = 1, Cmd = 5, InList? Y
system.cpu.dcache.cpu_side::sendTimingResp: hasPC? 1, PC = 4546802, hasContextId? 1, contextID = 0
system.cpu.dcache.cpu_side::recvTimingReq: hasPC? 1, PC = 4546807, hasContextId? 1, contextID = 0, Size = 4, MemCmd: WriteReq, needsResponse? Y
Packet's [Addr, Dir, RespCmd]: [1170156, 1, 5]
system.cpu.dcache.cpu_side::sendTimingResp: hasPC? 1, PC = 4546807, hasContextId? 1, contextID = 0, time = 189500, Addr = 1170156, Dir = 1, Cmd = 5, InList? Y
system.cpu.dcache.cpu_side::sendTimingResp: hasPC? 1, PC = 4546807, hasContextId? 1, contextID = 0
system.cpu.dcache.cpu_side::recvTimingReq: hasPC? 1, PC = 4546811, hasContextId? 1, contextID = 0, Size = 8, MemCmd: WriteReq, needsResponse? Y
Packet's [Addr, Dir, RespCmd]: [1170160, 1, 5]
system.cpu.dcache.cpu_side::sendTimingResp: hasPC? 1, PC = 4546811, hasContextId? 1, contextID = 0, time = 189500, Addr = 1170160, Dir = 1, Cmd = 5, InList? Y
system.cpu.dcache.cpu_side::sendTimingResp: hasPC? 1, PC = 4546811, hasContextId? 1, contextID = 0
system.cpu.dcache.cpu_side::recvTimingReq: hasPC? 1, PC = 4546830, hasContextId? 1, contextID = 0, Size = 4, MemCmd: WriteReq, needsResponse? Y
Packet's [Addr, Dir, RespCmd]: [1070184, 1, 5]
system.cpu.dcache.cpu_side::recvTimingReq: hasPC? 1, PC = 4764994, hasContextId? 1, contextID = 0, Size = 8, MemCmd: ReadReq, needsResponse? Y
Packet's [Addr, Dir, RespCmd]: [1170880, 1, 2]
system.cpu.dcache.cpu_side::recvTimingReq: hasPC? 1, PC = 4765010, hasContextId? 1, contextID = 0, Size = 8, MemCmd: ReadReq, needsResponse? Y
Packet's [Addr, Dir, RespCmd]: [1166064, 1, 2]
system.cpu.dcache.cpu_side::recvTimingReq: hasPC? 1, PC = 4765017, hasContextId? 1, contextID = 0, Size = 4, MemCmd: ReadReq, needsResponse? Y
Packet's [Addr, Dir, RespCmd]: [1166256, 1, 2]
system.cpu.dcache.cpu_side::recvTimingReq: hasPC? 1, PC = 4765026, hasContextId? 1, contextID = 0, Size = 8, MemCmd: ReadReq, needsResponse? Y
Packet's [Addr, Dir, RespCmd]: [1166056, 1, 2]
system.cpu.dcache.cpu_side::recvTimingReq: hasPC? 1, PC = 4765033, hasContextId? 1, contextID = 0, Size = 8, MemCmd: ReadReq, needsResponse? Y
Packet's [Addr, Dir, RespCmd]: [1166200, 1, 2]
system.cpu.dcache.cpu_side::recvTimingReq: hasPC? 1, PC = 4765042, hasContextId? 1, contextID = 0, Size = 8, MemCmd: ReadReq, needsResponse? Y
Packet's [Addr, Dir, RespCmd]: [1164976, 1, 2]
system.cpu.dcache.cpu_side::recvTimingReq: hasPC? 1, PC = 4765049, hasContextId? 1, contextID = 0, Size = 8, MemCmd: ReadReq, needsResponse? Y
Packet's [Addr, Dir, RespCmd]: [1166248, 1, 2]
system.cpu.dcache.cpu_side::sendTimingResp: hasPC? 1, PC = 4546830, hasContextId? 1, contextID = 0, time = 271500, Addr = 1070184, Dir = 1, Cmd = 5, InList? Y
system.cpu.dcache.cpu_side::sendTimingResp: hasPC? 1, PC = 4546830, hasContextId? 1, contextID = 0
system.cpu.dcache.cpu_side::recvTimingReq: hasPC? 1, PC = 4546859, hasContextId? 1, contextID = 0, Size = 8, MemCmd: WriteReq, needsResponse? Y
Packet's [Addr, Dir, RespCmd]: [1162440, 1, 5]
system.cpu.dcache.cpu_side::recvTimingReq: hasPC? 1, PC = 4765058, hasContextId? 1, contextID = 0, Size = 4, MemCmd: ReadReq, needsResponse? Y
Packet's [Addr, Dir, RespCmd]: [1065288, 1, 2]
system.cpu.dcache.cpu_side::recvTimingReq: hasPC? 1, PC = 4765065, hasContextId? 1, contextID = 0, Size = 4, MemCmd: ReadReq, needsResponse? Y
Packet's [Addr, Dir, RespCmd]: [1166320, 1, 2]
system.cpu.dcache.cpu_side::recvTimingReq: hasPC? 1, PC = 4765096, hasContextId? 1, contextID = 0, Size = 8, MemCmd: ReadReq, needsResponse? Y
Packet's [Addr, Dir, RespCmd]: [1170888, 1, 2]
system.cpu.dcache.cpu_side::recvTimingReq: hasPC? 1, PC = 4765108, hasContextId? 1, contextID = 0, Size = 8, MemCmd: ReadReq, needsResponse? Y
Packet's [Addr, Dir, RespCmd]: [1170896, 1, 2]
system.cpu.dcache.cpu_side::recvTimingReq: hasPC? 1, PC = 4546859, hasContextId? 1, contextID = 0, Size = 8, MemCmd: WriteReq, needsResponse? Y
Packet's [Addr, Dir, RespCmd]: [1162440, 1, 5]
system.cpu.dcache.cpu_side::sendTimingResp: hasPC? 1, PC = 4764994, hasContextId? 1, contextID = 0, time = 442000, Addr = 1170880, Dir = 1, Cmd = 2, InList? Y
system.cpu.dcache.cpu_side::sendTimingResp: hasPC? 1, PC = 4764994, hasContextId? 1, contextID = 0
system.cpu.dcache.cpu_side::recvTimingReq: hasPC? 1, PC = 4765042, hasContextId? 1, contextID = 0, Size = 8, MemCmd: ReadReq, needsResponse? Y
Packet's [Addr, Dir, RespCmd]: [1164976, 1, 2]
system.cpu.dcache.cpu_side::recvTimingReq: hasPC? 1, PC = 4765049, hasContextId? 1, contextID = 0, Size = 8, MemCmd: ReadReq, needsResponse? Y
Packet's [Addr, Dir, RespCmd]: [1166248, 1, 2]
system.cpu.dcache.cpu_side::recvTimingReq: hasPC? 1, PC = 4765058, hasContextId? 1, contextID = 0, Size = 4, MemCmd: ReadReq, needsResponse? Y
Packet's [Addr, Dir, RespCmd]: [1065288, 1, 2]
system.cpu.dcache.cpu_side::recvTimingReq: hasPC? 1, PC = 4765065, hasContextId? 1, contextID = 0, Size = 4, MemCmd: ReadReq, needsResponse? Y
Packet's [Addr, Dir, RespCmd]: [1166320, 1, 2]
system.cpu.dcache.cpu_side::recvTimingReq: hasPC? 1, PC = 4765096, hasContextId? 1, contextID = 0, Size = 8, MemCmd: ReadReq, needsResponse? Y
Packet's [Addr, Dir, RespCmd]: [1170888, 1, 2]
system.cpu.dcache.cpu_side::recvTimingReq: hasPC? 1, PC = 4765108, hasContextId? 1, contextID = 0, Size = 8, MemCmd: ReadReq, needsResponse? Y
Packet's [Addr, Dir, RespCmd]: [1170896, 1, 2]
system.cpu.dcache.cpu_side::recvTimingReq: hasPC? 1, PC = 4765082, hasContextId? 1, contextID = 0, Size = 8, MemCmd: ReadReq, needsResponse? Y
Packet's [Addr, Dir, RespCmd]: [820784, 1, 2]
system.cpu.dcache.cpu_side::sendTimingResp: hasPC? 1, PC = 4765010, hasContextId? 1, contextID = 0, time = 443000, Addr = 1166064, Dir = 1, Cmd = 2, InList? Y
system.cpu.dcache.cpu_side::sendTimingResp: hasPC? 1, PC = 4765010, hasContextId? 1, contextID = 0
system.cpu.dcache.cpu_side::recvTimingReq: hasPC? 1, PC = 4765042, hasContextId? 1, contextID = 0, Size = 8, MemCmd: ReadReq, needsResponse? Y
Packet's [Addr, Dir, RespCmd]: [1164976, 1, 2]
system.cpu.dcache.cpu_side::recvTimingReq: hasPC? 1, PC = 4765049, hasContextId? 1, contextID = 0, Size = 8, MemCmd: ReadReq, needsResponse? Y
Packet's [Addr, Dir, RespCmd]: [1166248, 1, 2]
system.cpu.dcache.cpu_side::recvTimingReq: hasPC? 1, PC = 4765058, hasContextId? 1, contextID = 0, Size = 4, MemCmd: ReadReq, needsResponse? Y
Packet's [Addr, Dir, RespCmd]: [1065288, 1, 2]
system.cpu.dcache.cpu_side::recvTimingReq: hasPC? 1, PC = 4765065, hasContextId? 1, contextID = 0, Size = 4, MemCmd: ReadReq, needsResponse? Y
Packet's [Addr, Dir, RespCmd]: [1166320, 1, 2]
system.cpu.dcache.cpu_side::recvTimingReq: hasPC? 1, PC = 4765082, hasContextId? 1, contextID = 0, Size = 8, MemCmd: ReadReq, needsResponse? Y
Packet's [Addr, Dir, RespCmd]: [820784, 1, 2]
system.cpu.dcache.cpu_side::recvTimingReq: hasPC? 1, PC = 4765096, hasContextId? 1, contextID = 0, Size = 8, MemCmd: ReadReq, needsResponse? Y
Packet's [Addr, Dir, RespCmd]: [1170888, 1, 2]
system.cpu.dcache.cpu_side::recvTimingReq: hasPC? 1, PC = 4765108, hasContextId? 1, contextID = 0, Size = 8, MemCmd: ReadReq, needsResponse? Y
Packet's [Addr, Dir, RespCmd]: [1170896, 1, 2]
system.cpu.dcache.cpu_side::sendTimingResp: hasPC? 1, PC = 4765026, hasContextId? 1, contextID = 0, time = 443500, Addr = 1166056, Dir = 1, Cmd = 2, InList? Y
system.cpu.dcache.cpu_side::sendTimingResp: hasPC? 1, PC = 4765026, hasContextId? 1, contextID = 0
system.cpu.dcache.cpu_side::sendTimingResp: hasPC? 1, PC = 4765017, hasContextId? 1, contextID = 0, time = 443000, Addr = 1166256, Dir = 1, Cmd = 2, InList? Y
system.cpu.dcache.cpu_side::sendTimingResp: hasPC? 1, PC = 4765017, hasContextId? 1, contextID = 0
system.cpu.dcache.cpu_side::recvTimingReq: hasPC? 1, PC = 4765049, hasContextId? 1, contextID = 0, Size = 8, MemCmd: ReadReq, needsResponse? Y
Packet's [Addr, Dir, RespCmd]: [1166248, 1, 2]
system.cpu.dcache.cpu_side::recvTimingReq: hasPC? 1, PC = 4765058, hasContextId? 1, contextID = 0, Size = 4, MemCmd: ReadReq, needsResponse? Y
Packet's [Addr, Dir, RespCmd]: [1065288, 1, 2]
system.cpu.dcache.cpu_side::recvTimingReq: hasPC? 1, PC = 4765065, hasContextId? 1, contextID = 0, Size = 4, MemCmd: ReadReq, needsResponse? Y
Packet's [Addr, Dir, RespCmd]: [1166320, 1, 2]
system.cpu.dcache.cpu_side::recvTimingReq: hasPC? 1, PC = 4765082, hasContextId? 1, contextID = 0, Size = 8, MemCmd: ReadReq, needsResponse? Y
Packet's [Addr, Dir, RespCmd]: [820784, 1, 2]
system.cpu.dcache.cpu_side::recvTimingReq: hasPC? 1, PC = 4765096, hasContextId? 1, contextID = 0, Size = 8, MemCmd: ReadReq, needsResponse? Y
Packet's [Addr, Dir, RespCmd]: [1170888, 1, 2]
system.cpu.dcache.cpu_side::recvTimingReq: hasPC? 1, PC = 4765108, hasContextId? 1, contextID = 0, Size = 8, MemCmd: ReadReq, needsResponse? Y
Packet's [Addr, Dir, RespCmd]: [1170896, 1, 2]
system.cpu.dcache.cpu_side::sendTimingResp: hasPC? 1, PC = 4765049, hasContextId? 1, contextID = 0, time = 536500, Addr = 1166248, Dir = 1, Cmd = 2, InList? Y
system.cpu.dcache.cpu_side::sendTimingResp: hasPC? 1, PC = 4765049, hasContextId? 1, contextID = 0
system.cpu.dcache.cpu_side::sendTimingResp: hasPC? 1, PC = 4765033, hasContextId? 1, contextID = 0, time = 443500, Addr = 1166200, Dir = 1, Cmd = 2, InList? Y
system.cpu.dcache.cpu_side::sendTimingResp: hasPC? 1, PC = 4765033, hasContextId? 1, contextID = 0
system.cpu.dcache.cpu_side::recvTimingReq: hasPC? 1, PC = 4765065, hasContextId? 1, contextID = 0, Size = 4, MemCmd: ReadReq, needsResponse? Y
Packet's [Addr, Dir, RespCmd]: [1166320, 1, 2]
system.cpu.dcache.cpu_side::recvTimingReq: hasPC? 1, PC = 4765082, hasContextId? 1, contextID = 0, Size = 8, MemCmd: ReadReq, needsResponse? Y
Packet's [Addr, Dir, RespCmd]: [820784, 1, 2]
system.cpu.dcache.cpu_side::recvTimingReq: hasPC? 1, PC = 4765096, hasContextId? 1, contextID = 0, Size = 8, MemCmd: ReadReq, needsResponse? Y
Packet's [Addr, Dir, RespCmd]: [1170888, 1, 2]
system.cpu.dcache.cpu_side::recvTimingReq: hasPC? 1, PC = 4765108, hasContextId? 1, contextID = 0, Size = 8, MemCmd: ReadReq, needsResponse? Y
Packet's [Addr, Dir, RespCmd]: [1170896, 1, 2]
system.cpu.dcache.cpu_side::sendTimingResp: hasPC? 1, PC = 4546859, hasContextId? 1, contextID = 0, time = 273000, Addr = 1162440, Dir = 1, Cmd = 5, InList? Y
system.cpu.dcache.cpu_side::sendTimingResp: hasPC? 1, PC = 4546859, hasContextId? 1, contextID = 0
system.cpu.dcache.cpu_side::recvTimingReq: hasPC? 1, PC = 4765082, hasContextId? 1, contextID = 0, Size = 8, MemCmd: ReadReq, needsResponse? Y
Packet's [Addr, Dir, RespCmd]: [820784, 1, 2]
system.cpu.dcache.cpu_side::recvTimingReq: hasPC? 1, PC = 4765096, hasContextId? 1, contextID = 0, Size = 8, MemCmd: ReadReq, needsResponse? Y
Packet's [Addr, Dir, RespCmd]: [1170888, 1, 2]
system.cpu.dcache.cpu_side::recvTimingReq: hasPC? 1, PC = 4765108, hasContextId? 1, contextID = 0, Size = 8, MemCmd: ReadReq, needsResponse? Y
Packet's [Addr, Dir, RespCmd]: [1170896, 1, 2]
system.cpu.dcache.cpu_side::recvTimingReq: hasPC? 1, PC = 4546866, hasContextId? 1, contextID = 0, Size = 8, MemCmd: WriteReq, needsResponse? Y
Packet's [Addr, Dir, RespCmd]: [1065280, 1, 5]
system.cpu.dcache.cpu_side::recvTimingReq: hasPC? 1, PC = 4546866, hasContextId? 1, contextID = 0, Size = 8, MemCmd: WriteReq, needsResponse? Y
Packet's [Addr, Dir, RespCmd]: [1065280, 1, 5]
system.cpu.dcache.cpu_side::sendTimingResp: hasPC? 1, PC = 4765042, hasContextId? 1, contextID = 0, time = 531500, Addr = 1164976, Dir = 1, Cmd = 2, InList? Y
system.cpu.dcache.cpu_side::sendTimingResp: hasPC? 1, PC = 4765042, hasContextId? 1, contextID = 0
system.cpu.dcache.cpu_side::recvTimingReq: hasPC? 1, PC = 4765096, hasContextId? 1, contextID = 0, Size = 8, MemCmd: ReadReq, needsResponse? Y
Packet's [Addr, Dir, RespCmd]: [1170888, 1, 2]
system.cpu.dcache.cpu_side::recvTimingReq: hasPC? 1, PC = 4765108, hasContextId? 1, contextID = 0, Size = 8, MemCmd: ReadReq, needsResponse? Y
Packet's [Addr, Dir, RespCmd]: [1170896, 1, 2]
system.cpu.dcache.cpu_side::sendTimingResp: hasPC? 1, PC = 4765096, hasContextId? 1, contextID = 0, time = 623500, Addr = 1170888, Dir = 1, Cmd = 2, InList? Y
system.cpu.dcache.cpu_side::sendTimingResp: hasPC? 1, PC = 4765096, hasContextId? 1, contextID = 0
system.cpu.dcache.cpu_side::sendTimingResp: hasPC? 1, PC = 4765108, hasContextId? 1, contextID = 0, time = 623500, Addr = 1170896, Dir = 1, Cmd = 2, InList? Y
system.cpu.dcache.cpu_side::sendTimingResp: hasPC? 1, PC = 4765108, hasContextId? 1, contextID = 0
system.cpu.dcache.cpu_side::sendTimingResp: hasPC? 1, PC = 4765058, hasContextId? 1, contextID = 0, time = 536500, Addr = 1065288, Dir = 1, Cmd = 2, InList? Y
system.cpu.dcache.cpu_side::sendTimingResp: hasPC? 1, PC = 4765058, hasContextId? 1, contextID = 0
system.cpu.dcache.cpu_side::sendTimingResp: hasPC? 1, PC = 4546866, hasContextId? 1, contextID = 0, time = 272500, Addr = 1065280, Dir = 1, Cmd = 5, InList? Y
system.cpu.dcache.cpu_side::sendTimingResp: hasPC? 1, PC = 4546866, hasContextId? 1, contextID = 0
system.cpu.dcache.cpu_side::recvTimingReq: hasPC? 1, PC = 4546892, hasContextId? 1, contextID = 0, Size = 8, MemCmd: WriteReq, needsResponse? Y
Packet's [Addr, Dir, RespCmd]: [1170136, 1, 5]
system.cpu.dcache.cpu_side::sendTimingResp: hasPC? 1, PC = 4546892, hasContextId? 1, contextID = 0, time = 345500, Addr = 1170136, Dir = 1, Cmd = 5, InList? Y
system.cpu.dcache.cpu_side::sendTimingResp: hasPC? 1, PC = 4546892, hasContextId? 1, contextID = 0
system.cpu.dcache.cpu_side::recvTimingReq: hasPC? 1, PC = 4765082, hasContextId? 1, contextID = 0, Size = 8, MemCmd: ReadReq, needsResponse? Y
Packet's [Addr, Dir, RespCmd]: [820648, 1, 2]
system.cpu.dcache.cpu_side::recvTimingReq: hasPC? 1, PC = 4765096, hasContextId? 1, contextID = 0, Size = 8, MemCmd: ReadReq, needsResponse? Y
Packet's [Addr, Dir, RespCmd]: [1170904, 1, 2]
system.cpu.dcache.cpu_side::recvTimingReq: hasPC? 1, PC = 4764992, hasContextId? 1, contextID = 0, Size = 8, MemCmd: WriteReq, needsResponse? Y
Packet's [Addr, Dir, RespCmd]: [1170128, 1, 5]
system.cpu.dcache.cpu_side::sendTimingResp: hasPC? 1, PC = 4765096, hasContextId? 1, contextID = 0, time = 632500, Addr = 1170904, Dir = 1, Cmd = 2, InList? Y
system.cpu.dcache.cpu_side::sendTimingResp: hasPC? 1, PC = 4765096, hasContextId? 1, contextID = 0
system.cpu.dcache.cpu_side::recvTimingReq: hasPC? 1, PC = 4765108, hasContextId? 1, contextID = 0, Size = 8, MemCmd: ReadReq, needsResponse? Y
Packet's [Addr, Dir, RespCmd]: [1170912, 1, 2]
system.cpu.dcache.cpu_side::sendTimingResp: hasPC? 1, PC = 4764992, hasContextId? 1, contextID = 0, time = 442000, Addr = 1170128, Dir = 1, Cmd = 5, InList? Y
system.cpu.dcache.cpu_side::sendTimingResp: hasPC? 1, PC = 4764992, hasContextId? 1, contextID = 0
system.cpu.dcache.cpu_side::recvTimingReq: hasPC? 1, PC = 4764997, hasContextId? 1, contextID = 0, Size = 8, MemCmd: WriteReq, needsResponse? Y
Packet's [Addr, Dir, RespCmd]: [1170120, 1, 5]
system.cpu.dcache.cpu_side::sendTimingResp: hasPC? 1, PC = 4765108, hasContextId? 1, contextID = 0, time = 633500, Addr = 1170912, Dir = 1, Cmd = 2, InList? Y
system.cpu.dcache.cpu_side::sendTimingResp: hasPC? 1, PC = 4765108, hasContextId? 1, contextID = 0
system.cpu.dcache.cpu_side::sendTimingResp: hasPC? 1, PC = 4764997, hasContextId? 1, contextID = 0, time = 442500, Addr = 1170120, Dir = 1, Cmd = 5, InList? Y
system.cpu.dcache.cpu_side::sendTimingResp: hasPC? 1, PC = 4764997, hasContextId? 1, contextID = 0
system.cpu.dcache.cpu_side::recvTimingReq: hasPC? 1, PC = 4765002, hasContextId? 1, contextID = 0, Size = 8, MemCmd: WriteReq, needsResponse? Y
Packet's [Addr, Dir, RespCmd]: [1170112, 1, 5]
system.cpu.dcache.cpu_side::sendTimingResp: hasPC? 1, PC = 4765002, hasContextId? 1, contextID = 0, time = 443000, Addr = 1170112, Dir = 1, Cmd = 5, InList? Y
system.cpu.dcache.cpu_side::sendTimingResp: hasPC? 1, PC = 4765002, hasContextId? 1, contextID = 0
system.cpu.dcache.cpu_side::recvTimingReq: hasPC? 1, PC = 4765003, hasContextId? 1, contextID = 0, Size = 8, MemCmd: WriteReq, needsResponse? Y
Packet's [Addr, Dir, RespCmd]: [1170104, 1, 5]
system.cpu.dcache.cpu_side::sendTimingResp: hasPC? 1, PC = 4765065, hasContextId? 1, contextID = 0, time = 541500, Addr = 1166320, Dir = 1, Cmd = 2, InList? Y
system.cpu.dcache.cpu_side::sendTimingResp: hasPC? 1, PC = 4765065, hasContextId? 1, contextID = 0
system.cpu.dcache.cpu_side::recvTimingReq: hasPC? 1, PC = 4765082, hasContextId? 1, contextID = 0, Size = 8, MemCmd: ReadReq, needsResponse? Y
Packet's [Addr, Dir, RespCmd]: [820568, 1, 2]
system.cpu.dcache.cpu_side::recvTimingReq: hasPC? 1, PC = 4765096, hasContextId? 1, contextID = 0, Size = 8, MemCmd: ReadReq, needsResponse? Y
Packet's [Addr, Dir, RespCmd]: [1170920, 1, 2]
system.cpu.dcache.cpu_side::recvTimingReq: hasPC? 1, PC = 4765108, hasContextId? 1, contextID = 0, Size = 8, MemCmd: ReadReq, needsResponse? Y
Packet's [Addr, Dir, RespCmd]: [1170928, 1, 2]
system.cpu.dcache.cpu_side::recvTimingReq: hasPC? 1, PC = 4765212, hasContextId? 1, contextID = 0, Size = 8, MemCmd: ReadReq, needsResponse? Y
Packet's [Addr, Dir, RespCmd]: [1170104, 1, 2]
system.cpu.dcache.cpu_side::recvTimingReq: hasPC? 1, PC = 4765213, hasContextId? 1, contextID = 0, Size = 8, MemCmd: ReadReq, needsResponse? Y
Packet's [Addr, Dir, RespCmd]: [1170112, 1, 2]
system.cpu.dcache.cpu_side::recvTimingReq: hasPC? 1, PC = 4765214, hasContextId? 1, contextID = 0, Size = 8, MemCmd: ReadReq, needsResponse? Y
Packet's [Addr, Dir, RespCmd]: [1170120, 1, 2]
system.cpu.dcache.cpu_side::recvTimingReq: hasPC? 1, PC = 4765216, hasContextId? 1, contextID = 0, Size = 8, MemCmd: ReadReq, needsResponse? Y
Packet's [Addr, Dir, RespCmd]: [1170128, 1, 2]
system.cpu.dcache.cpu_side::recvTimingReq: hasPC? 1, PC = 4765218, hasContextId? 1, contextID = 0, Size = 8, MemCmd: ReadReq, needsResponse? Y
Packet's [Addr, Dir, RespCmd]: [1170136, 1, 2]
system.cpu.dcache.cpu_side::sendTimingResp: hasPC? 1, PC = 4765082, hasContextId? 1, contextID = 0, time = 618500, Addr = 820784, Dir = 1, Cmd = 2, InList? Y
system.cpu.dcache.cpu_side::sendTimingResp: hasPC? 1, PC = 4765082, hasContextId? 1, contextID = 0
system.cpu.dcache.cpu_side::recvTimingReq: hasPC? 1, PC = 4765096, hasContextId? 1, contextID = 0, Size = 8, MemCmd: ReadReq, needsResponse? Y
Packet's [Addr, Dir, RespCmd]: [1170920, 1, 2]
system.cpu.dcache.cpu_side::recvTimingReq: hasPC? 1, PC = 4765108, hasContextId? 1, contextID = 0, Size = 8, MemCmd: ReadReq, needsResponse? Y
Packet's [Addr, Dir, RespCmd]: [1170928, 1, 2]
system.cpu.dcache.cpu_side::recvTimingReq: hasPC? 1, PC = 4765212, hasContextId? 1, contextID = 0, Size = 8, MemCmd: ReadReq, needsResponse? Y
Packet's [Addr, Dir, RespCmd]: [1170104, 1, 2]
system.cpu.dcache.cpu_side::recvTimingReq: hasPC? 1, PC = 4765213, hasContextId? 1, contextID = 0, Size = 8, MemCmd: ReadReq, needsResponse? Y
Packet's [Addr, Dir, RespCmd]: [1170112, 1, 2]
system.cpu.dcache.cpu_side::recvTimingReq: hasPC? 1, PC = 4765214, hasContextId? 1, contextID = 0, Size = 8, MemCmd: ReadReq, needsResponse? Y
Packet's [Addr, Dir, RespCmd]: [1170120, 1, 2]
system.cpu.dcache.cpu_side::recvTimingReq: hasPC? 1, PC = 4765216, hasContextId? 1, contextID = 0, Size = 8, MemCmd: ReadReq, needsResponse? Y
Packet's [Addr, Dir, RespCmd]: [1170128, 1, 2]
system.cpu.dcache.cpu_side::recvTimingReq: hasPC? 1, PC = 4765218, hasContextId? 1, contextID = 0, Size = 8, MemCmd: ReadReq, needsResponse? Y
Packet's [Addr, Dir, RespCmd]: [1170136, 1, 2]
system.cpu.dcache.cpu_side::sendTimingResp: hasPC? 1, PC = 4765096, hasContextId? 1, contextID = 0, time = 704500, Addr = 1170920, Dir = 1, Cmd = 2, InList? Y
system.cpu.dcache.cpu_side::sendTimingResp: hasPC? 1, PC = 4765096, hasContextId? 1, contextID = 0
system.cpu.dcache.cpu_side::sendTimingResp: hasPC? 1, PC = 4765108, hasContextId? 1, contextID = 0, time = 704500, Addr = 1170928, Dir = 1, Cmd = 2, InList? Y
system.cpu.dcache.cpu_side::sendTimingResp: hasPC? 1, PC = 4765108, hasContextId? 1, contextID = 0
system.cpu.dcache.cpu_side::sendTimingResp: hasPC? 1, PC = 4765213, hasContextId? 1, contextID = 0, time = 704500, Addr = 1170112, Dir = 1, Cmd = 2, InList? Y
system.cpu.dcache.cpu_side::sendTimingResp: hasPC? 1, PC = 4765213, hasContextId? 1, contextID = 0
system.cpu.dcache.cpu_side::sendTimingResp: hasPC? 1, PC = 4765214, hasContextId? 1, contextID = 0, time = 705000, Addr = 1170120, Dir = 1, Cmd = 2, InList? Y
system.cpu.dcache.cpu_side::sendTimingResp: hasPC? 1, PC = 4765214, hasContextId? 1, contextID = 0
system.cpu.dcache.cpu_side::sendTimingResp: hasPC? 1, PC = 4765216, hasContextId? 1, contextID = 0, time = 705000, Addr = 1170128, Dir = 1, Cmd = 2, InList? Y
system.cpu.dcache.cpu_side::sendTimingResp: hasPC? 1, PC = 4765216, hasContextId? 1, contextID = 0
system.cpu.dcache.cpu_side::sendTimingResp: hasPC? 1, PC = 4765218, hasContextId? 1, contextID = 0, time = 705000, Addr = 1170136, Dir = 1, Cmd = 2, InList? Y
system.cpu.dcache.cpu_side::sendTimingResp: hasPC? 1, PC = 4765218, hasContextId? 1, contextID = 0
system.cpu.dcache.cpu_side::sendTimingResp: hasPC? 1, PC = 4765082, hasContextId? 1, contextID = 0, time = 632500, Addr = 820648, Dir = 1, Cmd = 2, InList? Y
system.cpu.dcache.cpu_side::sendTimingResp: hasPC? 1, PC = 4765082, hasContextId? 1, contextID = 0
system.cpu.dcache.cpu_side::recvTimingReq: hasPC? 1, PC = 4765224, hasContextId? 1, contextID = 0, Size = 8, MemCmd: ReadReq, needsResponse? Y
Packet's [Addr, Dir, RespCmd]: [1170888, 1, 2]
system.cpu.dcache.cpu_side::sendTimingResp: hasPC? 1, PC = 4765003, hasContextId? 1, contextID = 0, time = 443500, Addr = 1170104, Dir = 1, Cmd = 5, InList? Y
system.cpu.dcache.cpu_side::sendTimingResp: hasPC? 1, PC = 4765003, hasContextId? 1, contextID = 0
system.cpu.dcache.cpu_side::sendTimingResp: hasPC? 1, PC = 4765212, hasContextId? 1, contextID = 0, time = 704500, Addr = 1170104, Dir = 1, Cmd = 2, InList? Y
system.cpu.dcache.cpu_side::sendTimingResp: hasPC? 1, PC = 4765212, hasContextId? 1, contextID = 0
system.cpu.dcache.cpu_side::sendTimingResp: hasPC? 1, PC = 4765224, hasContextId? 1, contextID = 0, time = 717000, Addr = 1170888, Dir = 1, Cmd = 2, InList? Y
system.cpu.dcache.cpu_side::sendTimingResp: hasPC? 1, PC = 4765224, hasContextId? 1, contextID = 0
system.cpu.dcache.cpu_side::recvTimingReq: hasPC? 1, PC = 4765232, hasContextId? 1, contextID = 0, Size = 8, MemCmd: ReadReq, needsResponse? Y
Packet's [Addr, Dir, RespCmd]: [1170896, 1, 2]
system.cpu.dcache.cpu_side::sendTimingResp: hasPC? 1, PC = 4765232, hasContextId? 1, contextID = 0, time = 718000, Addr = 1170896, Dir = 1, Cmd = 2, InList? Y
system.cpu.dcache.cpu_side::sendTimingResp: hasPC? 1, PC = 4765232, hasContextId? 1, contextID = 0
system.cpu.dcache.cpu_side::sendTimingResp: hasPC? 1, PC = 4765082, hasContextId? 1, contextID = 0, time = 642000, Addr = 820568, Dir = 1, Cmd = 2, InList? Y
system.cpu.dcache.cpu_side::sendTimingResp: hasPC? 1, PC = 4765082, hasContextId? 1, contextID = 0
system.cpu.dcache.cpu_side::recvTimingReq: hasPC? 1, PC = 4765096, hasContextId? 1, contextID = 0, Size = 8, MemCmd: ReadReq, needsResponse? Y
Packet's [Addr, Dir, RespCmd]: [1170904, 1, 2]
system.cpu.dcache.cpu_side::recvTimingReq: hasPC? 1, PC = 4765082, hasContextId? 1, contextID = 0, Size = 8, MemCmd: ReadReq, needsResponse? Y
Packet's [Addr, Dir, RespCmd]: [820648, 1, 2]
system.cpu.dcache.cpu_side::sendTimingResp: hasPC? 1, PC = 4765096, hasContextId? 1, contextID = 0, time = 725500, Addr = 1170904, Dir = 1, Cmd = 2, InList? Y
system.cpu.dcache.cpu_side::sendTimingResp: hasPC? 1, PC = 4765096, hasContextId? 1, contextID = 0
system.cpu.dcache.cpu_side::recvTimingReq: hasPC? 1, PC = 4765108, hasContextId? 1, contextID = 0, Size = 8, MemCmd: ReadReq, needsResponse? Y
Packet's [Addr, Dir, RespCmd]: [1170912, 1, 2]
system.cpu.dcache.cpu_side::sendTimingResp: hasPC? 1, PC = 4765082, hasContextId? 1, contextID = 0, time = 726000, Addr = 820648, Dir = 1, Cmd = 2, InList? Y
system.cpu.dcache.cpu_side::sendTimingResp: hasPC? 1, PC = 4765082, hasContextId? 1, contextID = 0
system.cpu.dcache.cpu_side::sendTimingResp: hasPC? 1, PC = 4765108, hasContextId? 1, contextID = 0, time = 726500, Addr = 1170912, Dir = 1, Cmd = 2, InList? Y
system.cpu.dcache.cpu_side::sendTimingResp: hasPC? 1, PC = 4765108, hasContextId? 1, contextID = 0
system.cpu.dcache.cpu_side::recvTimingReq: hasPC? 1, PC = 4765320, hasContextId? 1, contextID = 0, Size = 8, MemCmd: ReadReq, needsResponse? Y
Packet's [Addr, Dir, RespCmd]: [1170904, 1, 2]
system.cpu.dcache.cpu_side::sendTimingResp: hasPC? 1, PC = 4765320, hasContextId? 1, contextID = 0, time = 804000, Addr = 1170904, Dir = 1, Cmd = 2, InList? Y
system.cpu.dcache.cpu_side::sendTimingResp: hasPC? 1, PC = 4765320, hasContextId? 1, contextID = 0
system.cpu.dcache.cpu_side::recvTimingReq: hasPC? 1, PC = 4765328, hasContextId? 1, contextID = 0, Size = 8, MemCmd: ReadReq, needsResponse? Y
Packet's [Addr, Dir, RespCmd]: [1170912, 1, 2]
system.cpu.dcache.cpu_side::recvTimingReq: hasPC? 1, PC = 4765352, hasContextId? 1, contextID = 0, Size = 4, MemCmd: ReadReq, needsResponse? Y
Packet's [Addr, Dir, RespCmd]: [1170920, 1, 2]
system.cpu.dcache.cpu_side::recvTimingReq: hasPC? 1, PC = 4765362, hasContextId? 1, contextID = 0, Size = 8, MemCmd: ReadReq, needsResponse? Y
Packet's [Addr, Dir, RespCmd]: [1170928, 1, 2]
system.cpu.dcache.cpu_side::sendTimingResp: hasPC? 1, PC = 4765328, hasContextId? 1, contextID = 0, time = 805000, Addr = 1170912, Dir = 1, Cmd = 2, InList? Y
system.cpu.dcache.cpu_side::sendTimingResp: hasPC? 1, PC = 4765328, hasContextId? 1, contextID = 0
system.cpu.dcache.cpu_side::sendTimingResp: hasPC? 1, PC = 4765352, hasContextId? 1, contextID = 0, time = 805000, Addr = 1170920, Dir = 1, Cmd = 2, InList? Y
system.cpu.dcache.cpu_side::sendTimingResp: hasPC? 1, PC = 4765352, hasContextId? 1, contextID = 0
system.cpu.dcache.cpu_side::sendTimingResp: hasPC? 1, PC = 4765362, hasContextId? 1, contextID = 0, time = 805500, Addr = 1170928, Dir = 1, Cmd = 2, InList? Y
system.cpu.dcache.cpu_side::sendTimingResp: hasPC? 1, PC = 4765362, hasContextId? 1, contextID = 0
system.cpu.dcache.cpu_side::recvTimingReq: hasPC? 1, PC = 4765082, hasContextId? 1, contextID = 0, Size = 8, MemCmd: ReadReq, needsResponse? Y
Packet's [Addr, Dir, RespCmd]: [820568, 1, 2]
system.cpu.dcache.cpu_side::recvTimingReq: hasPC? 1, PC = 4765096, hasContextId? 1, contextID = 0, Size = 8, MemCmd: ReadReq, needsResponse? Y
Packet's [Addr, Dir, RespCmd]: [1170920, 1, 2]
system.cpu.dcache.cpu_side::sendTimingResp: hasPC? 1, PC = 4765082, hasContextId? 1, contextID = 0, time = 813000, Addr = 820568, Dir = 1, Cmd = 2, InList? Y
system.cpu.dcache.cpu_side::sendTimingResp: hasPC? 1, PC = 4765082, hasContextId? 1, contextID = 0
system.cpu.dcache.cpu_side::recvTimingReq: hasPC? 1, PC = 4765108, hasContextId? 1, contextID = 0, Size = 8, MemCmd: ReadReq, needsResponse? Y
Packet's [Addr, Dir, RespCmd]: [1170928, 1, 2]
system.cpu.dcache.cpu_side::sendTimingResp: hasPC? 1, PC = 4765096, hasContextId? 1, contextID = 0, time = 813000, Addr = 1170920, Dir = 1, Cmd = 2, InList? Y
system.cpu.dcache.cpu_side::sendTimingResp: hasPC? 1, PC = 4765096, hasContextId? 1, contextID = 0
system.cpu.dcache.cpu_side::sendTimingResp: hasPC? 1, PC = 4765108, hasContextId? 1, contextID = 0, time = 814000, Addr = 1170928, Dir = 1, Cmd = 2, InList? Y
system.cpu.dcache.cpu_side::sendTimingResp: hasPC? 1, PC = 4765108, hasContextId? 1, contextID = 0
system.cpu.dcache.cpu_side::recvTimingReq: hasPC? 1, PC = 4765096, hasContextId? 1, contextID = 0, Size = 8, MemCmd: ReadReq, needsResponse? Y
Packet's [Addr, Dir, RespCmd]: [1170920, 1, 2]
system.cpu.dcache.cpu_side::sendTimingResp: hasPC? 1, PC = 4765096, hasContextId? 1, contextID = 0, time = 821000, Addr = 1170920, Dir = 1, Cmd = 2, InList? Y
system.cpu.dcache.cpu_side::sendTimingResp: hasPC? 1, PC = 4765096, hasContextId? 1, contextID = 0
system.cpu.dcache.cpu_side::recvTimingReq: hasPC? 1, PC = 4765108, hasContextId? 1, contextID = 0, Size = 8, MemCmd: ReadReq, needsResponse? Y
Packet's [Addr, Dir, RespCmd]: [1170928, 1, 2]
system.cpu.dcache.cpu_side::sendTimingResp: hasPC? 1, PC = 4765108, hasContextId? 1, contextID = 0, time = 822000, Addr = 1170928, Dir = 1, Cmd = 2, InList? Y
system.cpu.dcache.cpu_side::sendTimingResp: hasPC? 1, PC = 4765108, hasContextId? 1, contextID = 0
system.cpu.dcache.cpu_side::recvTimingReq: hasPC? 1, PC = 4765212, hasContextId? 1, contextID = 0, Size = 8, MemCmd: ReadReq, needsResponse? Y
Packet's [Addr, Dir, RespCmd]: [1170104, 1, 2]
system.cpu.dcache.cpu_side::sendTimingResp: hasPC? 1, PC = 4765212, hasContextId? 1, contextID = 0, time = 824000, Addr = 1170104, Dir = 1, Cmd = 2, InList? Y
system.cpu.dcache.cpu_side::sendTimingResp: hasPC? 1, PC = 4765212, hasContextId? 1, contextID = 0
system.cpu.dcache.cpu_side::recvTimingReq: hasPC? 1, PC = 4765082, hasContextId? 1, contextID = 0, Size = 8, MemCmd: ReadReq, needsResponse? Y
Packet's [Addr, Dir, RespCmd]: [820656, 1, 2]
system.cpu.dcache.cpu_side::recvTimingReq: hasPC? 1, PC = 4765096, hasContextId? 1, contextID = 0, Size = 8, MemCmd: ReadReq, needsResponse? Y
Packet's [Addr, Dir, RespCmd]: [1170936, 1, 2]
system.cpu.dcache.cpu_side::sendTimingResp: hasPC? 1, PC = 4765082, hasContextId? 1, contextID = 0, time = 832500, Addr = 820656, Dir = 1, Cmd = 2, InList? Y
system.cpu.dcache.cpu_side::sendTimingResp: hasPC? 1, PC = 4765082, hasContextId? 1, contextID = 0
system.cpu.dcache.cpu_side::recvTimingReq: hasPC? 1, PC = 4765108, hasContextId? 1, contextID = 0, Size = 8, MemCmd: ReadReq, needsResponse? Y
Packet's [Addr, Dir, RespCmd]: [1170944, 1, 2]
system.cpu.dcache.cpu_side::sendTimingResp: hasPC? 1, PC = 4765096, hasContextId? 1, contextID = 0, time = 832500, Addr = 1170936, Dir = 1, Cmd = 2, InList? Y
system.cpu.dcache.cpu_side::sendTimingResp: hasPC? 1, PC = 4765096, hasContextId? 1, contextID = 0
system.cpu.dcache.cpu_side::recvTimingReq: hasPC? 1, PC = 4765288, hasContextId? 1, contextID = 0, Size = 4, MemCmd: ReadReq, needsResponse? Y
Packet's [Addr, Dir, RespCmd]: [1170936, 1, 2]
system.cpu.dcache.cpu_side::sendTimingResp: hasPC? 1, PC = 4765288, hasContextId? 1, contextID = 0, time = 841000, Addr = 1170936, Dir = 1, Cmd = 2, InList? Y
system.cpu.dcache.cpu_side::sendTimingResp: hasPC? 1, PC = 4765288, hasContextId? 1, contextID = 0
system.cpu.dcache.cpu_side::recvTimingReq: hasPC? 1, PC = 4765296, hasContextId? 1, contextID = 0, Size = 8, MemCmd: ReadReq, needsResponse? Y
Packet's [Addr, Dir, RespCmd]: [1170944, 1, 2]
system.cpu.dcache.cpu_side::recvTimingReq: hasPC? 1, PC = 4765320, hasContextId? 1, contextID = 0, Size = 8, MemCmd: ReadReq, needsResponse? Y
Packet's [Addr, Dir, RespCmd]: [1170952, 1, 2]
system.cpu.dcache.cpu_side::recvTimingReq: hasPC? 1, PC = 4765328, hasContextId? 1, contextID = 0, Size = 8, MemCmd: ReadReq, needsResponse? Y
Packet's [Addr, Dir, RespCmd]: [1170960, 1, 2]
system.cpu.dcache.cpu_side::recvTimingReq: hasPC? 1, PC = 4765352, hasContextId? 1, contextID = 0, Size = 4, MemCmd: ReadReq, needsResponse? Y
Packet's [Addr, Dir, RespCmd]: [1170968, 1, 2]
system.cpu.dcache.cpu_side::recvTimingReq: hasPC? 1, PC = 4765212, hasContextId? 1, contextID = 0, Size = 8, MemCmd: ReadReq, needsResponse? Y
Packet's [Addr, Dir, RespCmd]: [1170104, 1, 2]
system.cpu.dcache.cpu_side::sendTimingResp: hasPC? 1, PC = 4765212, hasContextId? 1, contextID = 0, time = 850500, Addr = 1170104, Dir = 1, Cmd = 2, InList? Y
system.cpu.dcache.cpu_side::sendTimingResp: hasPC? 1, PC = 4765212, hasContextId? 1, contextID = 0
system.cpu.dcache.cpu_side::recvTimingReq: hasPC? 1, PC = 4765212, hasContextId? 1, contextID = 0, Size = 8, MemCmd: ReadReq, needsResponse? Y
Packet's [Addr, Dir, RespCmd]: [1170104, 1, 2]
system.cpu.dcache.cpu_side::recvTimingReq: hasPC? 1, PC = 4765213, hasContextId? 1, contextID = 0, Size = 8, MemCmd: ReadReq, needsResponse? Y
Packet's [Addr, Dir, RespCmd]: [1170112, 1, 2]
system.cpu.dcache.cpu_side::sendTimingResp: hasPC? 1, PC = 4765212, hasContextId? 1, contextID = 0, time = 855000, Addr = 1170104, Dir = 1, Cmd = 2, InList? Y
system.cpu.dcache.cpu_side::sendTimingResp: hasPC? 1, PC = 4765212, hasContextId? 1, contextID = 0
system.cpu.dcache.cpu_side::recvTimingReq: hasPC? 1, PC = 4765214, hasContextId? 1, contextID = 0, Size = 8, MemCmd: ReadReq, needsResponse? Y
Packet's [Addr, Dir, RespCmd]: [1170120, 1, 2]
system.cpu.dcache.cpu_side::sendTimingResp: hasPC? 1, PC = 4765213, hasContextId? 1, contextID = 0, time = 855500, Addr = 1170112, Dir = 1, Cmd = 2, InList? Y
system.cpu.dcache.cpu_side::sendTimingResp: hasPC? 1, PC = 4765213, hasContextId? 1, contextID = 0
system.cpu.dcache.cpu_side::recvTimingReq: hasPC? 1, PC = 4765216, hasContextId? 1, contextID = 0, Size = 8, MemCmd: ReadReq, needsResponse? Y
Packet's [Addr, Dir, RespCmd]: [1170128, 1, 2]
system.cpu.dcache.cpu_side::sendTimingResp: hasPC? 1, PC = 4765214, hasContextId? 1, contextID = 0, time = 856000, Addr = 1170120, Dir = 1, Cmd = 2, InList? Y
system.cpu.dcache.cpu_side::sendTimingResp: hasPC? 1, PC = 4765214, hasContextId? 1, contextID = 0
system.cpu.dcache.cpu_side::recvTimingReq: hasPC? 1, PC = 4765218, hasContextId? 1, contextID = 0, Size = 8, MemCmd: ReadReq, needsResponse? Y
Packet's [Addr, Dir, RespCmd]: [1170136, 1, 2]
system.cpu.dcache.cpu_side::sendTimingResp: hasPC? 1, PC = 4765216, hasContextId? 1, contextID = 0, time = 856500, Addr = 1170128, Dir = 1, Cmd = 2, InList? Y
system.cpu.dcache.cpu_side::sendTimingResp: hasPC? 1, PC = 4765216, hasContextId? 1, contextID = 0
system.cpu.dcache.cpu_side::sendTimingResp: hasPC? 1, PC = 4765218, hasContextId? 1, contextID = 0, time = 857000, Addr = 1170136, Dir = 1, Cmd = 2, InList? Y
system.cpu.dcache.cpu_side::sendTimingResp: hasPC? 1, PC = 4765218, hasContextId? 1, contextID = 0
system.cpu.dcache.cpu_side::recvTimingReq: hasPC? 1, PC = 4546897, hasContextId? 1, contextID = 0, Size = 4, MemCmd: ReadReq, needsResponse? Y
Packet's [Addr, Dir, RespCmd]: [1070184, 1, 2]
system.cpu.dcache.cpu_side::recvTimingReq: hasPC? 1, PC = 4546939, hasContextId? 1, contextID = 0, Size = 1, MemCmd: ReadReq, needsResponse? Y
Packet's [Addr, Dir, RespCmd]: [1170306, 1, 2]
system.cpu.dcache.cpu_side::sendTimingResp: hasPC? 1, PC = 4546897, hasContextId? 1, contextID = 0, time = 864000, Addr = 1070184, Dir = 1, Cmd = 2, InList? Y
system.cpu.dcache.cpu_side::sendTimingResp: hasPC? 1, PC = 4546897, hasContextId? 1, contextID = 0
system.cpu.dcache.cpu_side::sendTimingResp: hasPC? 1, PC = 4765108, hasContextId? 1, contextID = 0, time = 833500, Addr = 1170944, Dir = 1, Cmd = 2, InList? Y
system.cpu.dcache.cpu_side::sendTimingResp: hasPC? 1, PC = 4765108, hasContextId? 1, contextID = 0
system.cpu.dcache.cpu_side::sendTimingResp: hasPC? 1, PC = 4765296, hasContextId? 1, contextID = 0, time = 842000, Addr = 1170944, Dir = 1, Cmd = 2, InList? Y
system.cpu.dcache.cpu_side::sendTimingResp: hasPC? 1, PC = 4765296, hasContextId? 1, contextID = 0
system.cpu.dcache.cpu_side::sendTimingResp: hasPC? 1, PC = 4765320, hasContextId? 1, contextID = 0, time = 842000, Addr = 1170952, Dir = 1, Cmd = 2, InList? Y
system.cpu.dcache.cpu_side::sendTimingResp: hasPC? 1, PC = 4765320, hasContextId? 1, contextID = 0
system.cpu.dcache.cpu_side::sendTimingResp: hasPC? 1, PC = 4765328, hasContextId? 1, contextID = 0, time = 843000, Addr = 1170960, Dir = 1, Cmd = 2, InList? Y
system.cpu.dcache.cpu_side::sendTimingResp: hasPC? 1, PC = 4765328, hasContextId? 1, contextID = 0
system.cpu.dcache.cpu_side::sendTimingResp: hasPC? 1, PC = 4765352, hasContextId? 1, contextID = 0, time = 843000, Addr = 1170968, Dir = 1, Cmd = 2, InList? Y
system.cpu.dcache.cpu_side::sendTimingResp: hasPC? 1, PC = 4765352, hasContextId? 1, contextID = 0
system.cpu.dcache.cpu_side::recvTimingReq: hasPC? 1, PC = 4765082, hasContextId? 1, contextID = 0, Size = 8, MemCmd: ReadReq, needsResponse? Y
Packet's [Addr, Dir, RespCmd]: [820544, 1, 2]
system.cpu.dcache.cpu_side::recvTimingReq: hasPC? 1, PC = 4765096, hasContextId? 1, contextID = 0, Size = 8, MemCmd: ReadReq, needsResponse? Y
Packet's [Addr, Dir, RespCmd]: [1170952, 1, 2]
system.cpu.dcache.cpu_side::sendTimingResp: hasPC? 1, PC = 4765082, hasContextId? 1, contextID = 0, time = 925500, Addr = 820544, Dir = 1, Cmd = 2, InList? Y
system.cpu.dcache.cpu_side::sendTimingResp: hasPC? 1, PC = 4765082, hasContextId? 1, contextID = 0
system.cpu.dcache.cpu_side::recvTimingReq: hasPC? 1, PC = 4765108, hasContextId? 1, contextID = 0, Size = 8, MemCmd: ReadReq, needsResponse? Y
Packet's [Addr, Dir, RespCmd]: [1170960, 1, 2]
system.cpu.dcache.cpu_side::sendTimingResp: hasPC? 1, PC = 4765096, hasContextId? 1, contextID = 0, time = 925500, Addr = 1170952, Dir = 1, Cmd = 2, InList? Y
system.cpu.dcache.cpu_side::sendTimingResp: hasPC? 1, PC = 4765096, hasContextId? 1, contextID = 0
system.cpu.dcache.cpu_side::sendTimingResp: hasPC? 1, PC = 4765108, hasContextId? 1, contextID = 0, time = 926500, Addr = 1170960, Dir = 1, Cmd = 2, InList? Y
system.cpu.dcache.cpu_side::sendTimingResp: hasPC? 1, PC = 4765108, hasContextId? 1, contextID = 0
system.cpu.dcache.cpu_side::sendTimingResp: hasPC? 1, PC = 4546939, hasContextId? 1, contextID = 0, time = 864500, Addr = 1170306, Dir = 1, Cmd = 2, InList? Y
system.cpu.dcache.cpu_side::sendTimingResp: hasPC? 1, PC = 4546939, hasContextId? 1, contextID = 0
system.cpu.dcache.cpu_side::recvTimingReq: hasPC? 1, PC = 4765512, hasContextId? 1, contextID = 0, Size = 8, MemCmd: ReadReq, needsResponse? Y
Packet's [Addr, Dir, RespCmd]: [1170952, 1, 2]
system.cpu.dcache.cpu_side::sendTimingResp: hasPC? 1, PC = 4765512, hasContextId? 1, contextID = 0, time = 1009000, Addr = 1170952, Dir = 1, Cmd = 2, InList? Y
system.cpu.dcache.cpu_side::sendTimingResp: hasPC? 1, PC = 4765512, hasContextId? 1, contextID = 0
system.cpu.dcache.cpu_side::recvTimingReq: hasPC? 1, PC = 4765520, hasContextId? 1, contextID = 0, Size = 8, MemCmd: ReadReq, needsResponse? Y
Packet's [Addr, Dir, RespCmd]: [1170960, 1, 2]
system.cpu.dcache.cpu_side::sendTimingResp: hasPC? 1, PC = 4765520, hasContextId? 1, contextID = 0, time = 1010000, Addr = 1170960, Dir = 1, Cmd = 2, InList? Y
system.cpu.dcache.cpu_side::sendTimingResp: hasPC? 1, PC = 4765520, hasContextId? 1, contextID = 0
system.cpu.dcache.cpu_side::recvTimingReq: hasPC? 1, PC = 4765096, hasContextId? 1, contextID = 0, Size = 8, MemCmd: ReadReq, needsResponse? Y
Packet's [Addr, Dir, RespCmd]: [1170968, 1, 2]
system.cpu.dcache.cpu_side::recvTimingReq: hasPC? 1, PC = 4765082, hasContextId? 1, contextID = 0, Size = 8, MemCmd: ReadReq, needsResponse? Y
Packet's [Addr, Dir, RespCmd]: [820552, 1, 2]
system.cpu.dcache.cpu_side::sendTimingResp: hasPC? 1, PC = 4765096, hasContextId? 1, contextID = 0, time = 1017500, Addr = 1170968, Dir = 1, Cmd = 2, InList? Y
system.cpu.dcache.cpu_side::sendTimingResp: hasPC? 1, PC = 4765096, hasContextId? 1, contextID = 0
system.cpu.dcache.cpu_side::recvTimingReq: hasPC? 1, PC = 4765108, hasContextId? 1, contextID = 0, Size = 8, MemCmd: ReadReq, needsResponse? Y
Packet's [Addr, Dir, RespCmd]: [1170976, 1, 2]
system.cpu.dcache.cpu_side::sendTimingResp: hasPC? 1, PC = 4765082, hasContextId? 1, contextID = 0, time = 1018000, Addr = 820552, Dir = 1, Cmd = 2, InList? Y
system.cpu.dcache.cpu_side::sendTimingResp: hasPC? 1, PC = 4765082, hasContextId? 1, contextID = 0
system.cpu.dcache.cpu_side::sendTimingResp: hasPC? 1, PC = 4765108, hasContextId? 1, contextID = 0, time = 1018500, Addr = 1170976, Dir = 1, Cmd = 2, InList? Y
system.cpu.dcache.cpu_side::sendTimingResp: hasPC? 1, PC = 4765108, hasContextId? 1, contextID = 0
system.cpu.dcache.cpu_side::recvTimingReq: hasPC? 1, PC = 4765108, hasContextId? 1, contextID = 0, Size = 8, MemCmd: ReadReq, needsResponse? Y
Packet's [Addr, Dir, RespCmd]: [1170976, 1, 2]
system.cpu.dcache.cpu_side::sendTimingResp: hasPC? 1, PC = 4765108, hasContextId? 1, contextID = 0, time = 1027000, Addr = 1170976, Dir = 1, Cmd = 2, InList? Y
system.cpu.dcache.cpu_side::sendTimingResp: hasPC? 1, PC = 4765108, hasContextId? 1, contextID = 0
system.cpu.dcache.cpu_side::recvTimingReq: hasPC? 1, PC = 4765212, hasContextId? 1, contextID = 0, Size = 8, MemCmd: ReadReq, needsResponse? Y
Packet's [Addr, Dir, RespCmd]: [1170104, 1, 2]
system.cpu.dcache.cpu_side::sendTimingResp: hasPC? 1, PC = 4765212, hasContextId? 1, contextID = 0, time = 1029000, Addr = 1170104, Dir = 1, Cmd = 2, InList? Y
system.cpu.dcache.cpu_side::sendTimingResp: hasPC? 1, PC = 4765212, hasContextId? 1, contextID = 0
system.cpu.dcache.cpu_side::recvTimingReq: hasPC? 1, PC = 4765082, hasContextId? 1, contextID = 0, Size = 8, MemCmd: ReadReq, needsResponse? Y
Packet's [Addr, Dir, RespCmd]: [820560, 1, 2]
system.cpu.dcache.cpu_side::recvTimingReq: hasPC? 1, PC = 4765096, hasContextId? 1, contextID = 0, Size = 8, MemCmd: ReadReq, needsResponse? Y
Packet's [Addr, Dir, RespCmd]: [1170984, 1, 2]
system.cpu.dcache.cpu_side::sendTimingResp: hasPC? 1, PC = 4765082, hasContextId? 1, contextID = 0, time = 1037500, Addr = 820560, Dir = 1, Cmd = 2, InList? Y
system.cpu.dcache.cpu_side::sendTimingResp: hasPC? 1, PC = 4765082, hasContextId? 1, contextID = 0
system.cpu.dcache.cpu_side::recvTimingReq: hasPC? 1, PC = 4765108, hasContextId? 1, contextID = 0, Size = 8, MemCmd: ReadReq, needsResponse? Y
Packet's [Addr, Dir, RespCmd]: [1170992, 1, 2]
system.cpu.dcache.cpu_side::sendTimingResp: hasPC? 1, PC = 4765096, hasContextId? 1, contextID = 0, time = 1037500, Addr = 1170984, Dir = 1, Cmd = 2, InList? Y
system.cpu.dcache.cpu_side::sendTimingResp: hasPC? 1, PC = 4765096, hasContextId? 1, contextID = 0
system.cpu.dcache.cpu_side::sendTimingResp: hasPC? 1, PC = 4765108, hasContextId? 1, contextID = 0, time = 1038500, Addr = 1170992, Dir = 1, Cmd = 2, InList? Y
system.cpu.dcache.cpu_side::sendTimingResp: hasPC? 1, PC = 4765108, hasContextId? 1, contextID = 0
system.cpu.dcache.cpu_side::recvTimingReq: hasPC? 1, PC = 4765480, hasContextId? 1, contextID = 0, Size = 8, MemCmd: ReadReq, needsResponse? Y
Packet's [Addr, Dir, RespCmd]: [1170984, 1, 2]
system.cpu.dcache.cpu_side::sendTimingResp: hasPC? 1, PC = 4765480, hasContextId? 1, contextID = 0, time = 1121000, Addr = 1170984, Dir = 1, Cmd = 2, InList? Y
system.cpu.dcache.cpu_side::sendTimingResp: hasPC? 1, PC = 4765480, hasContextId? 1, contextID = 0
system.cpu.dcache.cpu_side::recvTimingReq: hasPC? 1, PC = 4765488, hasContextId? 1, contextID = 0, Size = 8, MemCmd: ReadReq, needsResponse? Y
Packet's [Addr, Dir, RespCmd]: [1170992, 1, 2]
system.cpu.dcache.cpu_side::recvTimingReq: hasPC? 1, PC = 4765512, hasContextId? 1, contextID = 0, Size = 8, MemCmd: ReadReq, needsResponse? Y
Packet's [Addr, Dir, RespCmd]: [1171000, 1, 2]
system.cpu.dcache.cpu_side::sendTimingResp: hasPC? 1, PC = 4765488, hasContextId? 1, contextID = 0, time = 1122000, Addr = 1170992, Dir = 1, Cmd = 2, InList? Y
system.cpu.dcache.cpu_side::sendTimingResp: hasPC? 1, PC = 4765488, hasContextId? 1, contextID = 0
system.cpu.dcache.cpu_side::sendTimingResp: hasPC? 1, PC = 4765512, hasContextId? 1, contextID = 0, time = 1122500, Addr = 1171000, Dir = 1, Cmd = 2, InList? Y
system.cpu.dcache.cpu_side::sendTimingResp: hasPC? 1, PC = 4765512, hasContextId? 1, contextID = 0
system.cpu.dcache.cpu_side::recvTimingReq: hasPC? 1, PC = 4765520, hasContextId? 1, contextID = 0, Size = 8, MemCmd: ReadReq, needsResponse? Y
Packet's [Addr, Dir, RespCmd]: [1171008, 1, 2]
system.cpu.dcache.cpu_side::recvTimingReq: hasPC? 1, PC = 4765082, hasContextId? 1, contextID = 0, Size = 8, MemCmd: ReadReq, needsResponse? Y
Packet's [Addr, Dir, RespCmd]: [820576, 1, 2]
system.cpu.dcache.cpu_side::recvTimingReq: hasPC? 1, PC = 4765096, hasContextId? 1, contextID = 0, Size = 8, MemCmd: ReadReq, needsResponse? Y
Packet's [Addr, Dir, RespCmd]: [1171000, 1, 2]
system.cpu.dcache.cpu_side::sendTimingResp: hasPC? 1, PC = 4765082, hasContextId? 1, contextID = 0, time = 1130500, Addr = 820576, Dir = 1, Cmd = 2, InList? Y
system.cpu.dcache.cpu_side::sendTimingResp: hasPC? 1, PC = 4765082, hasContextId? 1, contextID = 0
system.cpu.dcache.cpu_side::recvTimingReq: hasPC? 1, PC = 4765108, hasContextId? 1, contextID = 0, Size = 8, MemCmd: ReadReq, needsResponse? Y
Packet's [Addr, Dir, RespCmd]: [1171008, 1, 2]
system.cpu.dcache.cpu_side::sendTimingResp: hasPC? 1, PC = 4765096, hasContextId? 1, contextID = 0, time = 1130500, Addr = 1171000, Dir = 1, Cmd = 2, InList? Y
system.cpu.dcache.cpu_side::sendTimingResp: hasPC? 1, PC = 4765096, hasContextId? 1, contextID = 0
system.cpu.dcache.cpu_side::recvTimingReq: hasPC? 1, PC = 4765108, hasContextId? 1, contextID = 0, Size = 8, MemCmd: ReadReq, needsResponse? Y
Packet's [Addr, Dir, RespCmd]: [1171008, 1, 2]
system.cpu.dcache.cpu_side::recvTimingReq: hasPC? 1, PC = 4765212, hasContextId? 1, contextID = 0, Size = 8, MemCmd: ReadReq, needsResponse? Y
Packet's [Addr, Dir, RespCmd]: [1170104, 1, 2]
system.cpu.dcache.cpu_side::recvTimingReq: hasPC? 1, PC = 4765213, hasContextId? 1, contextID = 0, Size = 8, MemCmd: ReadReq, needsResponse? Y
Packet's [Addr, Dir, RespCmd]: [1170112, 1, 2]
system.cpu.dcache.cpu_side::recvTimingReq: hasPC? 1, PC = 4765214, hasContextId? 1, contextID = 0, Size = 8, MemCmd: ReadReq, needsResponse? Y
Packet's [Addr, Dir, RespCmd]: [1170120, 1, 2]
system.cpu.dcache.cpu_side::sendTimingResp: hasPC? 1, PC = 4765212, hasContextId? 1, contextID = 0, time = 1141500, Addr = 1170104, Dir = 1, Cmd = 2, InList? Y
system.cpu.dcache.cpu_side::sendTimingResp: hasPC? 1, PC = 4765212, hasContextId? 1, contextID = 0
system.cpu.dcache.cpu_side::recvTimingReq: hasPC? 1, PC = 4765216, hasContextId? 1, contextID = 0, Size = 8, MemCmd: ReadReq, needsResponse? Y
Packet's [Addr, Dir, RespCmd]: [1170128, 1, 2]
system.cpu.dcache.cpu_side::sendTimingResp: hasPC? 1, PC = 4765213, hasContextId? 1, contextID = 0, time = 1141500, Addr = 1170112, Dir = 1, Cmd = 2, InList? Y
system.cpu.dcache.cpu_side::sendTimingResp: hasPC? 1, PC = 4765213, hasContextId? 1, contextID = 0
system.cpu.dcache.cpu_side::sendTimingResp: hasPC? 1, PC = 4765214, hasContextId? 1, contextID = 0, time = 1142000, Addr = 1170120, Dir = 1, Cmd = 2, InList? Y
system.cpu.dcache.cpu_side::sendTimingResp: hasPC? 1, PC = 4765214, hasContextId? 1, contextID = 0
system.cpu.dcache.cpu_side::recvTimingReq: hasPC? 1, PC = 4765218, hasContextId? 1, contextID = 0, Size = 8, MemCmd: ReadReq, needsResponse? Y
Packet's [Addr, Dir, RespCmd]: [1170136, 1, 2]
system.cpu.dcache.cpu_side::sendTimingResp: hasPC? 1, PC = 4765216, hasContextId? 1, contextID = 0, time = 1142500, Addr = 1170128, Dir = 1, Cmd = 2, InList? Y
system.cpu.dcache.cpu_side::sendTimingResp: hasPC? 1, PC = 4765216, hasContextId? 1, contextID = 0
system.cpu.dcache.cpu_side::sendTimingResp: hasPC? 1, PC = 4765218, hasContextId? 1, contextID = 0, time = 1143000, Addr = 1170136, Dir = 1, Cmd = 2, InList? Y
system.cpu.dcache.cpu_side::sendTimingResp: hasPC? 1, PC = 4765218, hasContextId? 1, contextID = 0
system.cpu.dcache.cpu_side::recvTimingReq: hasPC? 1, PC = 4546897, hasContextId? 1, contextID = 0, Size = 4, MemCmd: ReadReq, needsResponse? Y
Packet's [Addr, Dir, RespCmd]: [1070184, 1, 2]
system.cpu.dcache.cpu_side::recvTimingReq: hasPC? 1, PC = 4546939, hasContextId? 1, contextID = 0, Size = 1, MemCmd: ReadReq, needsResponse? Y
Packet's [Addr, Dir, RespCmd]: [1170306, 1, 2]
system.cpu.dcache.cpu_side::sendTimingResp: hasPC? 1, PC = 4546897, hasContextId? 1, contextID = 0, time = 1150000, Addr = 1070184, Dir = 1, Cmd = 2, InList? Y
system.cpu.dcache.cpu_side::sendTimingResp: hasPC? 1, PC = 4546897, hasContextId? 1, contextID = 0
system.cpu.dcache.cpu_side::sendTimingResp: hasPC? 1, PC = 4546939, hasContextId? 1, contextID = 0, time = 1150500, Addr = 1170306, Dir = 1, Cmd = 2, InList? Y
system.cpu.dcache.cpu_side::sendTimingResp: hasPC? 1, PC = 4546939, hasContextId? 1, contextID = 0
system.cpu.dcache.cpu_side::sendTimingResp: hasPC? 1, PC = 4765520, hasContextId? 1, contextID = 0, time = 1123500, Addr = 1171008, Dir = 1, Cmd = 2, InList? Y
system.cpu.dcache.cpu_side::sendTimingResp: hasPC? 1, PC = 4765520, hasContextId? 1, contextID = 0
system.cpu.dcache.cpu_side::sendTimingResp: hasPC? 1, PC = 4765108, hasContextId? 1, contextID = 0, time = 1131500, Addr = 1171008, Dir = 1, Cmd = 2, InList? Y
system.cpu.dcache.cpu_side::sendTimingResp: hasPC? 1, PC = 4765108, hasContextId? 1, contextID = 0
system.cpu.dcache.cpu_side::sendTimingResp: hasPC? 1, PC = 4765108, hasContextId? 1, contextID = 0, time = 1140000, Addr = 1171008, Dir = 1, Cmd = 2, InList? Y
system.cpu.dcache.cpu_side::sendTimingResp: hasPC? 1, PC = 4765108, hasContextId? 1, contextID = 0
system.cpu.dcache.cpu_side::recvTimingReq: hasPC? 1, PC = 4765082, hasContextId? 1, contextID = 0, Size = 8, MemCmd: ReadReq, needsResponse? Y
Packet's [Addr, Dir, RespCmd]: [820584, 1, 2]
system.cpu.dcache.cpu_side::recvTimingReq: hasPC? 1, PC = 4765096, hasContextId? 1, contextID = 0, Size = 8, MemCmd: ReadReq, needsResponse? Y
Packet's [Addr, Dir, RespCmd]: [1171016, 1, 2]
system.cpu.dcache.cpu_side::sendTimingResp: hasPC? 1, PC = 4765082, hasContextId? 1, contextID = 0, time = 1212500, Addr = 820584, Dir = 1, Cmd = 2, InList? Y
system.cpu.dcache.cpu_side::sendTimingResp: hasPC? 1, PC = 4765082, hasContextId? 1, contextID = 0
system.cpu.dcache.cpu_side::recvTimingReq: hasPC? 1, PC = 4765108, hasContextId? 1, contextID = 0, Size = 8, MemCmd: ReadReq, needsResponse? Y
Packet's [Addr, Dir, RespCmd]: [1171024, 1, 2]
system.cpu.dcache.cpu_side::sendTimingResp: hasPC? 1, PC = 4765096, hasContextId? 1, contextID = 0, time = 1212500, Addr = 1171016, Dir = 1, Cmd = 2, InList? Y
system.cpu.dcache.cpu_side::sendTimingResp: hasPC? 1, PC = 4765096, hasContextId? 1, contextID = 0
system.cpu.dcache.cpu_side::sendTimingResp: hasPC? 1, PC = 4765108, hasContextId? 1, contextID = 0, time = 1213500, Addr = 1171024, Dir = 1, Cmd = 2, InList? Y
system.cpu.dcache.cpu_side::sendTimingResp: hasPC? 1, PC = 4765108, hasContextId? 1, contextID = 0
system.cpu.dcache.cpu_side::recvTimingReq: hasPC? 1, PC = 4765108, hasContextId? 1, contextID = 0, Size = 8, MemCmd: ReadReq, needsResponse? Y
Packet's [Addr, Dir, RespCmd]: [1171024, 1, 2]
system.cpu.dcache.cpu_side::sendTimingResp: hasPC? 1, PC = 4765108, hasContextId? 1, contextID = 0, time = 1222000, Addr = 1171024, Dir = 1, Cmd = 2, InList? Y
system.cpu.dcache.cpu_side::sendTimingResp: hasPC? 1, PC = 4765108, hasContextId? 1, contextID = 0
system.cpu.dcache.cpu_side::recvTimingReq: hasPC? 1, PC = 4765212, hasContextId? 1, contextID = 0, Size = 8, MemCmd: ReadReq, needsResponse? Y
Packet's [Addr, Dir, RespCmd]: [1170104, 1, 2]
system.cpu.dcache.cpu_side::sendTimingResp: hasPC? 1, PC = 4765212, hasContextId? 1, contextID = 0, time = 1224000, Addr = 1170104, Dir = 1, Cmd = 2, InList? Y
system.cpu.dcache.cpu_side::sendTimingResp: hasPC? 1, PC = 4765212, hasContextId? 1, contextID = 0
system.cpu.dcache.cpu_side::recvTimingReq: hasPC? 1, PC = 4765082, hasContextId? 1, contextID = 0, Size = 8, MemCmd: ReadReq, needsResponse? Y
Packet's [Addr, Dir, RespCmd]: [820592, 1, 2]
system.cpu.dcache.cpu_side::recvTimingReq: hasPC? 1, PC = 4765096, hasContextId? 1, contextID = 0, Size = 8, MemCmd: ReadReq, needsResponse? Y
Packet's [Addr, Dir, RespCmd]: [1171032, 1, 2]
system.cpu.dcache.cpu_side::sendTimingResp: hasPC? 1, PC = 4765082, hasContextId? 1, contextID = 0, time = 1232500, Addr = 820592, Dir = 1, Cmd = 2, InList? Y
system.cpu.dcache.cpu_side::sendTimingResp: hasPC? 1, PC = 4765082, hasContextId? 1, contextID = 0
system.cpu.dcache.cpu_side::recvTimingReq: hasPC? 1, PC = 4765108, hasContextId? 1, contextID = 0, Size = 8, MemCmd: ReadReq, needsResponse? Y
Packet's [Addr, Dir, RespCmd]: [1171040, 1, 2]
system.cpu.dcache.cpu_side::sendTimingResp: hasPC? 1, PC = 4765096, hasContextId? 1, contextID = 0, time = 1232500, Addr = 1171032, Dir = 1, Cmd = 2, InList? Y
system.cpu.dcache.cpu_side::sendTimingResp: hasPC? 1, PC = 4765096, hasContextId? 1, contextID = 0
system.cpu.dcache.cpu_side::sendTimingResp: hasPC? 1, PC = 4765108, hasContextId? 1, contextID = 0, time = 1233500, Addr = 1171040, Dir = 1, Cmd = 2, InList? Y
system.cpu.dcache.cpu_side::sendTimingResp: hasPC? 1, PC = 4765108, hasContextId? 1, contextID = 0
system.cpu.dcache.cpu_side::recvTimingReq: hasPC? 1, PC = 4765108, hasContextId? 1, contextID = 0, Size = 8, MemCmd: ReadReq, needsResponse? Y
Packet's [Addr, Dir, RespCmd]: [1171040, 1, 2]
system.cpu.dcache.cpu_side::sendTimingResp: hasPC? 1, PC = 4765108, hasContextId? 1, contextID = 0, time = 1242000, Addr = 1171040, Dir = 1, Cmd = 2, InList? Y
system.cpu.dcache.cpu_side::sendTimingResp: hasPC? 1, PC = 4765108, hasContextId? 1, contextID = 0
system.cpu.dcache.cpu_side::recvTimingReq: hasPC? 1, PC = 4765212, hasContextId? 1, contextID = 0, Size = 8, MemCmd: ReadReq, needsResponse? Y
Packet's [Addr, Dir, RespCmd]: [1170104, 1, 2]
system.cpu.dcache.cpu_side::recvTimingReq: hasPC? 1, PC = 4765213, hasContextId? 1, contextID = 0, Size = 8, MemCmd: ReadReq, needsResponse? Y
Packet's [Addr, Dir, RespCmd]: [1170112, 1, 2]
system.cpu.dcache.cpu_side::sendTimingResp: hasPC? 1, PC = 4765212, hasContextId? 1, contextID = 0, time = 1243500, Addr = 1170104, Dir = 1, Cmd = 2, InList? Y
system.cpu.dcache.cpu_side::sendTimingResp: hasPC? 1, PC = 4765212, hasContextId? 1, contextID = 0
system.cpu.dcache.cpu_side::recvTimingReq: hasPC? 1, PC = 4765214, hasContextId? 1, contextID = 0, Size = 8, MemCmd: ReadReq, needsResponse? Y
Packet's [Addr, Dir, RespCmd]: [1170120, 1, 2]
system.cpu.dcache.cpu_side::sendTimingResp: hasPC? 1, PC = 4765213, hasContextId? 1, contextID = 0, time = 1244000, Addr = 1170112, Dir = 1, Cmd = 2, InList? Y
system.cpu.dcache.cpu_side::sendTimingResp: hasPC? 1, PC = 4765213, hasContextId? 1, contextID = 0
system.cpu.dcache.cpu_side::sendTimingResp: hasPC? 1, PC = 4765214, hasContextId? 1, contextID = 0, time = 1244500, Addr = 1170120, Dir = 1, Cmd = 2, InList? Y
system.cpu.dcache.cpu_side::sendTimingResp: hasPC? 1, PC = 4765214, hasContextId? 1, contextID = 0
system.cpu.dcache.cpu_side::recvTimingReq: hasPC? 1, PC = 4765082, hasContextId? 1, contextID = 0, Size = 8, MemCmd: ReadReq, needsResponse? Y
Packet's [Addr, Dir, RespCmd]: [820608, 1, 2]
system.cpu.dcache.cpu_side::recvTimingReq: hasPC? 1, PC = 4765096, hasContextId? 1, contextID = 0, Size = 8, MemCmd: ReadReq, needsResponse? Y
Packet's [Addr, Dir, RespCmd]: [1171048, 1, 2]
system.cpu.dcache.cpu_side::sendTimingResp: hasPC? 1, PC = 4765082, hasContextId? 1, contextID = 0, time = 1251500, Addr = 820608, Dir = 1, Cmd = 2, InList? Y
system.cpu.dcache.cpu_side::sendTimingResp: hasPC? 1, PC = 4765082, hasContextId? 1, contextID = 0
system.cpu.dcache.cpu_side::recvTimingReq: hasPC? 1, PC = 4765108, hasContextId? 1, contextID = 0, Size = 8, MemCmd: ReadReq, needsResponse? Y
Packet's [Addr, Dir, RespCmd]: [1171056, 1, 2]
system.cpu.dcache.cpu_side::sendTimingResp: hasPC? 1, PC = 4765096, hasContextId? 1, contextID = 0, time = 1251500, Addr = 1171048, Dir = 1, Cmd = 2, InList? Y
system.cpu.dcache.cpu_side::sendTimingResp: hasPC? 1, PC = 4765096, hasContextId? 1, contextID = 0
system.cpu.dcache.cpu_side::sendTimingResp: hasPC? 1, PC = 4765108, hasContextId? 1, contextID = 0, time = 1252500, Addr = 1171056, Dir = 1, Cmd = 2, InList? Y
system.cpu.dcache.cpu_side::sendTimingResp: hasPC? 1, PC = 4765108, hasContextId? 1, contextID = 0
system.cpu.dcache.cpu_side::recvTimingReq: hasPC? 1, PC = 4765448, hasContextId? 1, contextID = 0, Size = 4, MemCmd: ReadReq, needsResponse? Y
Packet's [Addr, Dir, RespCmd]: [1171048, 1, 2]
system.cpu.dcache.cpu_side::sendTimingResp: hasPC? 1, PC = 4765448, hasContextId? 1, contextID = 0, time = 1260000, Addr = 1171048, Dir = 1, Cmd = 2, InList? Y
system.cpu.dcache.cpu_side::sendTimingResp: hasPC? 1, PC = 4765448, hasContextId? 1, contextID = 0
system.cpu.dcache.cpu_side::recvTimingReq: hasPC? 1, PC = 4765458, hasContextId? 1, contextID = 0, Size = 8, MemCmd: ReadReq, needsResponse? Y
Packet's [Addr, Dir, RespCmd]: [1171056, 1, 2]
system.cpu.dcache.cpu_side::recvTimingReq: hasPC? 1, PC = 4765480, hasContextId? 1, contextID = 0, Size = 8, MemCmd: ReadReq, needsResponse? Y
Packet's [Addr, Dir, RespCmd]: [1171064, 1, 2]
system.cpu.dcache.cpu_side::sendTimingResp: hasPC? 1, PC = 4765458, hasContextId? 1, contextID = 0, time = 1261000, Addr = 1171056, Dir = 1, Cmd = 2, InList? Y
system.cpu.dcache.cpu_side::sendTimingResp: hasPC? 1, PC = 4765458, hasContextId? 1, contextID = 0
system.cpu.dcache.cpu_side::sendTimingResp: hasPC? 1, PC = 4765480, hasContextId? 1, contextID = 0, time = 1261000, Addr = 1171064, Dir = 1, Cmd = 2, InList? Y
system.cpu.dcache.cpu_side::sendTimingResp: hasPC? 1, PC = 4765480, hasContextId? 1, contextID = 0
system.cpu.dcache.cpu_side::recvTimingReq: hasPC? 1, PC = 4765082, hasContextId? 1, contextID = 0, Size = 8, MemCmd: ReadReq, needsResponse? Y
Packet's [Addr, Dir, RespCmd]: [820616, 1, 2]
system.cpu.dcache.cpu_side::recvTimingReq: hasPC? 1, PC = 4765096, hasContextId? 1, contextID = 0, Size = 8, MemCmd: ReadReq, needsResponse? Y
Packet's [Addr, Dir, RespCmd]: [1171064, 1, 2]
system.cpu.dcache.cpu_side::sendTimingResp: hasPC? 1, PC = 4765082, hasContextId? 1, contextID = 0, time = 1270000, Addr = 820616, Dir = 1, Cmd = 2, InList? Y
system.cpu.dcache.cpu_side::sendTimingResp: hasPC? 1, PC = 4765082, hasContextId? 1, contextID = 0
system.cpu.dcache.cpu_side::recvTimingReq: hasPC? 1, PC = 4765108, hasContextId? 1, contextID = 0, Size = 8, MemCmd: ReadReq, needsResponse? Y
Packet's [Addr, Dir, RespCmd]: [1171072, 1, 2]
system.cpu.dcache.cpu_side::sendTimingResp: hasPC? 1, PC = 4765096, hasContextId? 1, contextID = 0, time = 1270000, Addr = 1171064, Dir = 1, Cmd = 2, InList? Y
system.cpu.dcache.cpu_side::sendTimingResp: hasPC? 1, PC = 4765096, hasContextId? 1, contextID = 0
system.cpu.dcache.cpu_side::recvTimingReq: hasPC? 1, PC = 4765416, hasContextId? 1, contextID = 0, Size = 4, MemCmd: ReadReq, needsResponse? Y
Packet's [Addr, Dir, RespCmd]: [1171064, 1, 2]
system.cpu.dcache.cpu_side::sendTimingResp: hasPC? 1, PC = 4765416, hasContextId? 1, contextID = 0, time = 1278500, Addr = 1171064, Dir = 1, Cmd = 2, InList? Y
system.cpu.dcache.cpu_side::sendTimingResp: hasPC? 1, PC = 4765416, hasContextId? 1, contextID = 0
system.cpu.dcache.cpu_side::recvTimingReq: hasPC? 1, PC = 4765426, hasContextId? 1, contextID = 0, Size = 8, MemCmd: ReadReq, needsResponse? Y
Packet's [Addr, Dir, RespCmd]: [1171072, 1, 2]
system.cpu.dcache.cpu_side::recvTimingReq: hasPC? 1, PC = 4765448, hasContextId? 1, contextID = 0, Size = 4, MemCmd: ReadReq, needsResponse? Y
Packet's [Addr, Dir, RespCmd]: [1171080, 1, 2]
system.cpu.dcache.cpu_side::recvTimingReq: hasPC? 1, PC = 4765212, hasContextId? 1, contextID = 0, Size = 8, MemCmd: ReadReq, needsResponse? Y
Packet's [Addr, Dir, RespCmd]: [1170104, 1, 2]
system.cpu.dcache.cpu_side::sendTimingResp: hasPC? 1, PC = 4765212, hasContextId? 1, contextID = 0, time = 1288500, Addr = 1170104, Dir = 1, Cmd = 2, InList? Y
system.cpu.dcache.cpu_side::sendTimingResp: hasPC? 1, PC = 4765212, hasContextId? 1, contextID = 0
system.cpu.dcache.cpu_side::recvTimingReq: hasPC? 1, PC = 4765212, hasContextId? 1, contextID = 0, Size = 8, MemCmd: ReadReq, needsResponse? Y
Packet's [Addr, Dir, RespCmd]: [1170104, 1, 2]
system.cpu.dcache.cpu_side::recvTimingReq: hasPC? 1, PC = 4765213, hasContextId? 1, contextID = 0, Size = 8, MemCmd: ReadReq, needsResponse? Y
Packet's [Addr, Dir, RespCmd]: [1170112, 1, 2]
system.cpu.dcache.cpu_side::sendTimingResp: hasPC? 1, PC = 4765212, hasContextId? 1, contextID = 0, time = 1293000, Addr = 1170104, Dir = 1, Cmd = 2, InList? Y
system.cpu.dcache.cpu_side::sendTimingResp: hasPC? 1, PC = 4765212, hasContextId? 1, contextID = 0
system.cpu.dcache.cpu_side::recvTimingReq: hasPC? 1, PC = 4765214, hasContextId? 1, contextID = 0, Size = 8, MemCmd: ReadReq, needsResponse? Y
Packet's [Addr, Dir, RespCmd]: [1170120, 1, 2]
system.cpu.dcache.cpu_side::sendTimingResp: hasPC? 1, PC = 4765213, hasContextId? 1, contextID = 0, time = 1293500, Addr = 1170112, Dir = 1, Cmd = 2, InList? Y
system.cpu.dcache.cpu_side::sendTimingResp: hasPC? 1, PC = 4765213, hasContextId? 1, contextID = 0
system.cpu.dcache.cpu_side::recvTimingReq: hasPC? 1, PC = 4765216, hasContextId? 1, contextID = 0, Size = 8, MemCmd: ReadReq, needsResponse? Y
Packet's [Addr, Dir, RespCmd]: [1170128, 1, 2]
system.cpu.dcache.cpu_side::sendTimingResp: hasPC? 1, PC = 4765214, hasContextId? 1, contextID = 0, time = 1294000, Addr = 1170120, Dir = 1, Cmd = 2, InList? Y
system.cpu.dcache.cpu_side::sendTimingResp: hasPC? 1, PC = 4765214, hasContextId? 1, contextID = 0
system.cpu.dcache.cpu_side::recvTimingReq: hasPC? 1, PC = 4765218, hasContextId? 1, contextID = 0, Size = 8, MemCmd: ReadReq, needsResponse? Y
Packet's [Addr, Dir, RespCmd]: [1170136, 1, 2]
system.cpu.dcache.cpu_side::sendTimingResp: hasPC? 1, PC = 4765216, hasContextId? 1, contextID = 0, time = 1294500, Addr = 1170128, Dir = 1, Cmd = 2, InList? Y
system.cpu.dcache.cpu_side::sendTimingResp: hasPC? 1, PC = 4765216, hasContextId? 1, contextID = 0
system.cpu.dcache.cpu_side::sendTimingResp: hasPC? 1, PC = 4765218, hasContextId? 1, contextID = 0, time = 1295000, Addr = 1170136, Dir = 1, Cmd = 2, InList? Y
system.cpu.dcache.cpu_side::sendTimingResp: hasPC? 1, PC = 4765218, hasContextId? 1, contextID = 0
system.cpu.dcache.cpu_side::recvTimingReq: hasPC? 1, PC = 4546897, hasContextId? 1, contextID = 0, Size = 4, MemCmd: ReadReq, needsResponse? Y
Packet's [Addr, Dir, RespCmd]: [1070184, 1, 2]
system.cpu.dcache.cpu_side::sendTimingResp: hasPC? 1, PC = 4546897, hasContextId? 1, contextID = 0, time = 1302000, Addr = 1070184, Dir = 1, Cmd = 2, InList? Y
system.cpu.dcache.cpu_side::sendTimingResp: hasPC? 1, PC = 4546897, hasContextId? 1, contextID = 0
system.cpu.dcache.cpu_side::sendTimingResp: hasPC? 1, PC = 4765108, hasContextId? 1, contextID = 0, time = 1271000, Addr = 1171072, Dir = 1, Cmd = 2, InList? Y
system.cpu.dcache.cpu_side::sendTimingResp: hasPC? 1, PC = 4765108, hasContextId? 1, contextID = 0
system.cpu.dcache.cpu_side::sendTimingResp: hasPC? 1, PC = 4765426, hasContextId? 1, contextID = 0, time = 1279500, Addr = 1171072, Dir = 1, Cmd = 2, InList? Y
system.cpu.dcache.cpu_side::sendTimingResp: hasPC? 1, PC = 4765426, hasContextId? 1, contextID = 0
system.cpu.dcache.cpu_side::sendTimingResp: hasPC? 1, PC = 4765448, hasContextId? 1, contextID = 0, time = 1279500, Addr = 1171080, Dir = 1, Cmd = 2, InList? Y
system.cpu.dcache.cpu_side::sendTimingResp: hasPC? 1, PC = 4765448, hasContextId? 1, contextID = 0
system.cpu.dcache.cpu_side::recvTimingReq: hasPC? 1, PC = 4765082, hasContextId? 1, contextID = 0, Size = 8, MemCmd: ReadReq, needsResponse? Y
Packet's [Addr, Dir, RespCmd]: [820624, 1, 2]
system.cpu.dcache.cpu_side::recvTimingReq: hasPC? 1, PC = 4765096, hasContextId? 1, contextID = 0, Size = 8, MemCmd: ReadReq, needsResponse? Y
Packet's [Addr, Dir, RespCmd]: [1171080, 1, 2]
system.cpu.dcache.cpu_side::sendTimingResp: hasPC? 1, PC = 4765082, hasContextId? 1, contextID = 0, time = 1363000, Addr = 820624, Dir = 1, Cmd = 2, InList? Y
system.cpu.dcache.cpu_side::sendTimingResp: hasPC? 1, PC = 4765082, hasContextId? 1, contextID = 0
system.cpu.dcache.cpu_side::recvTimingReq: hasPC? 1, PC = 4765108, hasContextId? 1, contextID = 0, Size = 8, MemCmd: ReadReq, needsResponse? Y
Packet's [Addr, Dir, RespCmd]: [1171088, 1, 2]
system.cpu.dcache.cpu_side::sendTimingResp: hasPC? 1, PC = 4765096, hasContextId? 1, contextID = 0, time = 1363000, Addr = 1171080, Dir = 1, Cmd = 2, InList? Y
system.cpu.dcache.cpu_side::sendTimingResp: hasPC? 1, PC = 4765096, hasContextId? 1, contextID = 0
system.cpu.dcache.cpu_side::sendTimingResp: hasPC? 1, PC = 4765108, hasContextId? 1, contextID = 0, time = 1364000, Addr = 1171088, Dir = 1, Cmd = 2, InList? Y
system.cpu.dcache.cpu_side::sendTimingResp: hasPC? 1, PC = 4765108, hasContextId? 1, contextID = 0
system.cpu.dcache.cpu_side::recvTimingReq: hasPC? 1, PC = 4765384, hasContextId? 1, contextID = 0, Size = 4, MemCmd: ReadReq, needsResponse? Y
Packet's [Addr, Dir, RespCmd]: [1171080, 1, 2]
system.cpu.dcache.cpu_side::sendTimingResp: hasPC? 1, PC = 4765384, hasContextId? 1, contextID = 0, time = 1371500, Addr = 1171080, Dir = 1, Cmd = 2, InList? Y
system.cpu.dcache.cpu_side::sendTimingResp: hasPC? 1, PC = 4765384, hasContextId? 1, contextID = 0
system.cpu.dcache.cpu_side::recvTimingReq: hasPC? 1, PC = 4765394, hasContextId? 1, contextID = 0, Size = 8, MemCmd: ReadReq, needsResponse? Y
Packet's [Addr, Dir, RespCmd]: [1171088, 1, 2]
system.cpu.dcache.cpu_side::recvTimingReq: hasPC? 1, PC = 4765416, hasContextId? 1, contextID = 0, Size = 4, MemCmd: ReadReq, needsResponse? Y
Packet's [Addr, Dir, RespCmd]: [1171096, 1, 2]
system.cpu.dcache.cpu_side::sendTimingResp: hasPC? 1, PC = 4765394, hasContextId? 1, contextID = 0, time = 1372500, Addr = 1171088, Dir = 1, Cmd = 2, InList? Y
system.cpu.dcache.cpu_side::sendTimingResp: hasPC? 1, PC = 4765394, hasContextId? 1, contextID = 0
system.cpu.dcache.cpu_side::sendTimingResp: hasPC? 1, PC = 4765416, hasContextId? 1, contextID = 0, time = 1372500, Addr = 1171096, Dir = 1, Cmd = 2, InList? Y
system.cpu.dcache.cpu_side::sendTimingResp: hasPC? 1, PC = 4765416, hasContextId? 1, contextID = 0
system.cpu.dcache.cpu_side::recvTimingReq: hasPC? 1, PC = 4765082, hasContextId? 1, contextID = 0, Size = 8, MemCmd: ReadReq, needsResponse? Y
Packet's [Addr, Dir, RespCmd]: [820632, 1, 2]
system.cpu.dcache.cpu_side::recvTimingReq: hasPC? 1, PC = 4765096, hasContextId? 1, contextID = 0, Size = 8, MemCmd: ReadReq, needsResponse? Y
Packet's [Addr, Dir, RespCmd]: [1171096, 1, 2]
system.cpu.dcache.cpu_side::sendTimingResp: hasPC? 1, PC = 4765082, hasContextId? 1, contextID = 0, time = 1381500, Addr = 820632, Dir = 1, Cmd = 2, InList? Y
system.cpu.dcache.cpu_side::sendTimingResp: hasPC? 1, PC = 4765082, hasContextId? 1, contextID = 0
system.cpu.dcache.cpu_side::recvTimingReq: hasPC? 1, PC = 4765108, hasContextId? 1, contextID = 0, Size = 8, MemCmd: ReadReq, needsResponse? Y
Packet's [Addr, Dir, RespCmd]: [1171104, 1, 2]
system.cpu.dcache.cpu_side::sendTimingResp: hasPC? 1, PC = 4765096, hasContextId? 1, contextID = 0, time = 1381500, Addr = 1171096, Dir = 1, Cmd = 2, InList? Y
system.cpu.dcache.cpu_side::sendTimingResp: hasPC? 1, PC = 4765096, hasContextId? 1, contextID = 0
system.cpu.dcache.cpu_side::sendTimingResp: hasPC? 1, PC = 4765108, hasContextId? 1, contextID = 0, time = 1382500, Addr = 1171104, Dir = 1, Cmd = 2, InList? Y
system.cpu.dcache.cpu_side::sendTimingResp: hasPC? 1, PC = 4765108, hasContextId? 1, contextID = 0
system.cpu.dcache.cpu_side::recvTimingReq: hasPC? 1, PC = 4765352, hasContextId? 1, contextID = 0, Size = 4, MemCmd: ReadReq, needsResponse? Y
Packet's [Addr, Dir, RespCmd]: [1171096, 1, 2]
system.cpu.dcache.cpu_side::sendTimingResp: hasPC? 1, PC = 4765352, hasContextId? 1, contextID = 0, time = 1390000, Addr = 1171096, Dir = 1, Cmd = 2, InList? Y
system.cpu.dcache.cpu_side::sendTimingResp: hasPC? 1, PC = 4765352, hasContextId? 1, contextID = 0
system.cpu.dcache.cpu_side::recvTimingReq: hasPC? 1, PC = 4765362, hasContextId? 1, contextID = 0, Size = 8, MemCmd: ReadReq, needsResponse? Y
Packet's [Addr, Dir, RespCmd]: [1171104, 1, 2]
system.cpu.dcache.cpu_side::recvTimingReq: hasPC? 1, PC = 4765384, hasContextId? 1, contextID = 0, Size = 4, MemCmd: ReadReq, needsResponse? Y
Packet's [Addr, Dir, RespCmd]: [1171112, 1, 2]
system.cpu.dcache.cpu_side::sendTimingResp: hasPC? 1, PC = 4765362, hasContextId? 1, contextID = 0, time = 1391000, Addr = 1171104, Dir = 1, Cmd = 2, InList? Y
system.cpu.dcache.cpu_side::sendTimingResp: hasPC? 1, PC = 4765362, hasContextId? 1, contextID = 0
system.cpu.dcache.cpu_side::sendTimingResp: hasPC? 1, PC = 4765384, hasContextId? 1, contextID = 0, time = 1391000, Addr = 1171112, Dir = 1, Cmd = 2, InList? Y
system.cpu.dcache.cpu_side::sendTimingResp: hasPC? 1, PC = 4765384, hasContextId? 1, contextID = 0
system.cpu.dcache.cpu_side::recvTimingReq: hasPC? 1, PC = 4765082, hasContextId? 1, contextID = 0, Size = 8, MemCmd: ReadReq, needsResponse? Y
Packet's [Addr, Dir, RespCmd]: [820704, 1, 2]
system.cpu.dcache.cpu_side::recvTimingReq: hasPC? 1, PC = 4765096, hasContextId? 1, contextID = 0, Size = 8, MemCmd: ReadReq, needsResponse? Y
Packet's [Addr, Dir, RespCmd]: [1171112, 1, 2]
system.cpu.dcache.cpu_side::sendTimingResp: hasPC? 1, PC = 4765096, hasContextId? 1, contextID = 0, time = 1400000, Addr = 1171112, Dir = 1, Cmd = 2, InList? Y
system.cpu.dcache.cpu_side::sendTimingResp: hasPC? 1, PC = 4765096, hasContextId? 1, contextID = 0
system.cpu.dcache.cpu_side::recvTimingReq: hasPC? 1, PC = 4765108, hasContextId? 1, contextID = 0, Size = 8, MemCmd: ReadReq, needsResponse? Y
Packet's [Addr, Dir, RespCmd]: [1171120, 1, 2]
system.cpu.dcache.cpu_side::sendTimingResp: hasPC? 1, PC = 4765108, hasContextId? 1, contextID = 0, time = 1401000, Addr = 1171120, Dir = 1, Cmd = 2, InList? Y
system.cpu.dcache.cpu_side::sendTimingResp: hasPC? 1, PC = 4765108, hasContextId? 1, contextID = 0
system.cpu.dcache.cpu_side::recvTimingReq: hasPC? 1, PC = 4765212, hasContextId? 1, contextID = 0, Size = 8, MemCmd: ReadReq, needsResponse? Y
Packet's [Addr, Dir, RespCmd]: [1170104, 1, 2]
system.cpu.dcache.cpu_side::sendTimingResp: hasPC? 1, PC = 4765212, hasContextId? 1, contextID = 0, time = 1402500, Addr = 1170104, Dir = 1, Cmd = 2, InList? Y
system.cpu.dcache.cpu_side::sendTimingResp: hasPC? 1, PC = 4765212, hasContextId? 1, contextID = 0
system.cpu.dcache.cpu_side::recvTimingReq: hasPC? 1, PC = 4765213, hasContextId? 1, contextID = 0, Size = 8, MemCmd: ReadReq, needsResponse? Y
Packet's [Addr, Dir, RespCmd]: [1170112, 1, 2]
system.cpu.dcache.cpu_side::sendTimingResp: hasPC? 1, PC = 4765213, hasContextId? 1, contextID = 0, time = 1403500, Addr = 1170112, Dir = 1, Cmd = 2, InList? Y
system.cpu.dcache.cpu_side::sendTimingResp: hasPC? 1, PC = 4765213, hasContextId? 1, contextID = 0
system.cpu.dcache.cpu_side::recvTimingReq: hasPC? 1, PC = 4765082, hasContextId? 1, contextID = 0, Size = 8, MemCmd: ReadReq, needsResponse? Y
Packet's [Addr, Dir, RespCmd]: [820720, 1, 2]
system.cpu.dcache.cpu_side::recvTimingReq: hasPC? 1, PC = 4765096, hasContextId? 1, contextID = 0, Size = 8, MemCmd: ReadReq, needsResponse? Y
Packet's [Addr, Dir, RespCmd]: [1171128, 1, 2]
system.cpu.dcache.cpu_side::sendTimingResp: hasPC? 1, PC = 4765096, hasContextId? 1, contextID = 0, time = 1411500, Addr = 1171128, Dir = 1, Cmd = 2, InList? Y
system.cpu.dcache.cpu_side::sendTimingResp: hasPC? 1, PC = 4765096, hasContextId? 1, contextID = 0
system.cpu.dcache.cpu_side::recvTimingReq: hasPC? 1, PC = 4765108, hasContextId? 1, contextID = 0, Size = 8, MemCmd: ReadReq, needsResponse? Y
Packet's [Addr, Dir, RespCmd]: [1171136, 1, 2]
system.cpu.dcache.cpu_side::recvTimingReq: hasPC? 1, PC = 4765212, hasContextId? 1, contextID = 0, Size = 8, MemCmd: ReadReq, needsResponse? Y
Packet's [Addr, Dir, RespCmd]: [1170104, 1, 2]
system.cpu.dcache.cpu_side::sendTimingResp: hasPC? 1, PC = 4765212, hasContextId? 1, contextID = 0, time = 1414000, Addr = 1170104, Dir = 1, Cmd = 2, InList? Y
system.cpu.dcache.cpu_side::sendTimingResp: hasPC? 1, PC = 4765212, hasContextId? 1, contextID = 0
system.cpu.dcache.cpu_side::recvTimingReq: hasPC? 1, PC = 4765213, hasContextId? 1, contextID = 0, Size = 8, MemCmd: ReadReq, needsResponse? Y
Packet's [Addr, Dir, RespCmd]: [1170112, 1, 2]
system.cpu.dcache.cpu_side::recvTimingReq: hasPC? 1, PC = 4765214, hasContextId? 1, contextID = 0, Size = 8, MemCmd: ReadReq, needsResponse? Y
Packet's [Addr, Dir, RespCmd]: [1170120, 1, 2]
system.cpu.dcache.cpu_side::sendTimingResp: hasPC? 1, PC = 4765213, hasContextId? 1, contextID = 0, time = 1415000, Addr = 1170112, Dir = 1, Cmd = 2, InList? Y
system.cpu.dcache.cpu_side::sendTimingResp: hasPC? 1, PC = 4765213, hasContextId? 1, contextID = 0
system.cpu.dcache.cpu_side::recvTimingReq: hasPC? 1, PC = 4765216, hasContextId? 1, contextID = 0, Size = 8, MemCmd: ReadReq, needsResponse? Y
Packet's [Addr, Dir, RespCmd]: [1170128, 1, 2]
system.cpu.dcache.cpu_side::sendTimingResp: hasPC? 1, PC = 4765214, hasContextId? 1, contextID = 0, time = 1415500, Addr = 1170120, Dir = 1, Cmd = 2, InList? Y
system.cpu.dcache.cpu_side::sendTimingResp: hasPC? 1, PC = 4765214, hasContextId? 1, contextID = 0
system.cpu.dcache.cpu_side::recvTimingReq: hasPC? 1, PC = 4765218, hasContextId? 1, contextID = 0, Size = 8, MemCmd: ReadReq, needsResponse? Y
Packet's [Addr, Dir, RespCmd]: [1170136, 1, 2]
system.cpu.dcache.cpu_side::sendTimingResp: hasPC? 1, PC = 4765216, hasContextId? 1, contextID = 0, time = 1416000, Addr = 1170128, Dir = 1, Cmd = 2, InList? Y
system.cpu.dcache.cpu_side::sendTimingResp: hasPC? 1, PC = 4765216, hasContextId? 1, contextID = 0
system.cpu.dcache.cpu_side::sendTimingResp: hasPC? 1, PC = 4765218, hasContextId? 1, contextID = 0, time = 1416500, Addr = 1170136, Dir = 1, Cmd = 2, InList? Y
system.cpu.dcache.cpu_side::sendTimingResp: hasPC? 1, PC = 4765218, hasContextId? 1, contextID = 0
[...]
system.cpu.dcache.cpu_side::sendTimingResp: hasPC? 1, PC = 4720078, hasContextId? 1, contextID = 0
system.cpu.dcache.cpu_side::recvTimingReq: hasPC? 1, PC = 4720099, hasContextId? 1, contextID = 0, Size = 8, MemCmd: ReadReq, needsResponse? Y
Packet's [Addr, Dir, RespCmd]: [816048, 1, 2]
system.cpu.dcache.cpu_side::recvTimingReq: hasPC? 1, PC = 4720110, hasContextId? 1, contextID = 0, Size = 8, MemCmd: ReadReq, needsResponse? Y
Packet's [Addr, Dir, RespCmd]: [816000, 1, 2]
system.cpu.dcache.cpu_side::sendTimingResp: hasPC? 1, PC = 4720099, hasContextId? 1, contextID = 0, time = 34373000, Addr = 816048, Dir = 1, Cmd = 2, InList? Y
system.cpu.dcache.cpu_side::sendTimingResp: hasPC? 1, PC = 4720099, hasContextId? 1, contextID = 0
system.cpu.dcache.cpu_side::sendTimingResp: hasPC? 1, PC = 4720110, hasContextId? 1, contextID = 0, time = 34373000, Addr = 816000, Dir = 1, Cmd = 2, InList? Y
system.cpu.dcache.cpu_side::sendTimingResp: hasPC? 1, PC = 4720110, hasContextId? 1, contextID = 0
system.cpu.dcache.cpu_side::recvTimingReq: hasPC? 1, PC = 4767936, hasContextId? 1, contextID = 0, Size = 8, MemCmd: ReadReq, needsResponse? Y
Packet's [Addr, Dir, RespCmd]: [1166208, 1, 2]
system.cpu.dcache.cpu_side::sendTimingResp: hasPC? 1, PC = 4767936, hasContextId? 1, contextID = 0, time = 34375000, Addr = 1166208, Dir = 1, Cmd = 2, InList? Y
system.cpu.dcache.cpu_side::sendTimingResp: hasPC? 1, PC = 4767936, hasContextId? 1, contextID = 0
system.cpu.dcache.cpu_side::recvTimingReq: hasPC? 1, PC = 4720137, hasContextId? 1, contextID = 0, Size = 8, MemCmd: ReadReq, needsResponse? Y
Packet's [Addr, Dir, RespCmd]: [815968, 1, 2]
system.cpu.dcache.cpu_side::sendTimingResp: hasPC? 1, PC = 4720137, hasContextId? 1, contextID = 0, time = 34376000, Addr = 815968, Dir = 1, Cmd = 2, InList? Y
system.cpu.dcache.cpu_side::sendTimingResp: hasPC? 1, PC = 4720137, hasContextId? 1, contextID = 0
system.cpu.dcache.cpu_side::recvTimingReq: hasPC? 1, PC = 4720071, hasContextId? 1, contextID = 0, Size = 8, MemCmd: ReadReq, needsResponse? Y
Packet's [Addr, Dir, RespCmd]: [1177600, 1, 2]
system.cpu.dcache.cpu_side::sendTimingResp: hasPC? 1, PC = 4720071, hasContextId? 1, contextID = 0, time = 34384000, Addr = 1177600, Dir = 1, Cmd = 2, InList? Y
system.cpu.dcache.cpu_side::sendTimingResp: hasPC? 1, PC = 4720071, hasContextId? 1, contextID = 0
system.cpu.dcache.cpu_side::recvTimingReq: hasPC? 1, PC = 4720075, hasContextId? 1, contextID = 0, Size = 8, MemCmd: ReadReq, needsResponse? Y
Packet's [Addr, Dir, RespCmd]: [800096, 1, 2]
system.cpu.dcache.cpu_side::sendTimingResp: hasPC? 1, PC = 4720075, hasContextId? 1, contextID = 0, time = 34385500, Addr = 800096, Dir = 1, Cmd = 2, InList? Y
system.cpu.dcache.cpu_side::sendTimingResp: hasPC? 1, PC = 4720075, hasContextId? 1, contextID = 0
system.cpu.dcache.cpu_side::recvTimingReq: hasPC? 1, PC = 4720091, hasContextId? 1, contextID = 0, Size = 8, MemCmd: ReadReq, needsResponse? Y
Packet's [Addr, Dir, RespCmd]: [815976, 1, 2]
system.cpu.dcache.cpu_side::recvTimingReq: hasPC? 1, PC = 4720096, hasContextId? 1, contextID = 0, Size = 8, MemCmd: ReadReq, needsResponse? Y
Packet's [Addr, Dir, RespCmd]: [815968, 1, 2]
system.cpu.dcache.cpu_side::recvTimingReq: hasPC? 1, PC = 4720078, hasContextId? 1, contextID = 0, Size = 8, MemCmd: ReadReq, needsResponse? Y
Packet's [Addr, Dir, RespCmd]: [829800, 1, 2]
system.cpu.dcache.cpu_side::sendTimingResp: hasPC? 1, PC = 4720091, hasContextId? 1, contextID = 0, time = 34386500, Addr = 815976, Dir = 1, Cmd = 2, InList? Y
system.cpu.dcache.cpu_side::sendTimingResp: hasPC? 1, PC = 4720091, hasContextId? 1, contextID = 0
system.cpu.dcache.cpu_side::sendTimingResp: hasPC? 1, PC = 4720096, hasContextId? 1, contextID = 0, time = 34386500, Addr = 815968, Dir = 1, Cmd = 2, InList? Y
system.cpu.dcache.cpu_side::sendTimingResp: hasPC? 1, PC = 4720096, hasContextId? 1, contextID = 0
system.cpu.dcache.cpu_side::sendTimingResp: hasPC? 1, PC = 4720078, hasContextId? 1, contextID = 0, time = 34387000, Addr = 829800, Dir = 1, Cmd = 2, InList? Y
system.cpu.dcache.cpu_side::sendTimingResp: hasPC? 1, PC = 4720078, hasContextId? 1, contextID = 0
system.cpu.dcache.cpu_side::recvTimingReq: hasPC? 1, PC = 4720099, hasContextId? 1, contextID = 0, Size = 8, MemCmd: ReadReq, needsResponse? Y
Packet's [Addr, Dir, RespCmd]: [816048, 1, 2]
system.cpu.dcache.cpu_side::recvTimingReq: hasPC? 1, PC = 4720110, hasContextId? 1, contextID = 0, Size = 8, MemCmd: ReadReq, needsResponse? Y
Packet's [Addr, Dir, RespCmd]: [816000, 1, 2]
system.cpu.dcache.cpu_side::sendTimingResp: hasPC? 1, PC = 4720099, hasContextId? 1, contextID = 0, time = 34388500, Addr = 816048, Dir = 1, Cmd = 2, InList? Y
system.cpu.dcache.cpu_side::sendTimingResp: hasPC? 1, PC = 4720099, hasContextId? 1, contextID = 0
system.cpu.dcache.cpu_side::sendTimingResp: hasPC? 1, PC = 4720110, hasContextId? 1, contextID = 0, time = 34388500, Addr = 816000, Dir = 1, Cmd = 2, InList? Y
system.cpu.dcache.cpu_side::sendTimingResp: hasPC? 1, PC = 4720110, hasContextId? 1, contextID = 0
system.cpu.dcache.cpu_side::recvTimingReq: hasPC? 1, PC = 4767936, hasContextId? 1, contextID = 0, Size = 8, MemCmd: ReadReq, needsResponse? Y
Packet's [Addr, Dir, RespCmd]: [1166208, 1, 2]
system.cpu.dcache.cpu_side::sendTimingResp: hasPC? 1, PC = 4767936, hasContextId? 1, contextID = 0, time = 34390500, Addr = 1166208, Dir = 1, Cmd = 2, InList? Y
system.cpu.dcache.cpu_side::sendTimingResp: hasPC? 1, PC = 4767936, hasContextId? 1, contextID = 0
system.cpu.dcache.cpu_side::recvTimingReq: hasPC? 1, PC = 4720137, hasContextId? 1, contextID = 0, Size = 8, MemCmd: ReadReq, needsResponse? Y
Packet's [Addr, Dir, RespCmd]: [815968, 1, 2]
system.cpu.dcache.cpu_side::sendTimingResp: hasPC? 1, PC = 4720137, hasContextId? 1, contextID = 0, time = 34391500, Addr = 815968, Dir = 1, Cmd = 2, InList? Y
system.cpu.dcache.cpu_side::sendTimingResp: hasPC? 1, PC = 4720137, hasContextId? 1, contextID = 0
system.cpu.dcache.cpu_side::sendTimingResp: hasPC? 1, PC = 4228055, hasContextId? 1, contextID = 0, time = 34334000, Addr = 1152128, Dir = 1, Cmd = 5, InList? Y
system.cpu.dcache.cpu_side::sendTimingResp: hasPC? 1, PC = 4228055, hasContextId? 1, contextID = 0
system.cpu.dcache.cpu_side::recvTimingReq: hasPC? 1, PC = 4228050, hasContextId? 1, contextID = 0, Size = 8, MemCmd: WriteReq, needsResponse? Y
Packet's [Addr, Dir, RespCmd]: [1169784, 1, 5]
system.cpu.dcache.cpu_side::sendTimingResp: hasPC? 1, PC = 4228050, hasContextId? 1, contextID = 0, time = 34334500, Addr = 1169784, Dir = 1, Cmd = 5, InList? Y
system.cpu.dcache.cpu_side::sendTimingResp: hasPC? 1, PC = 4228050, hasContextId? 1, contextID = 0
system.cpu.dcache.cpu_side::recvTimingReq: hasPC? 1, PC = 4720000, hasContextId? 1, contextID = 0, Size = 8, MemCmd: WriteReq, needsResponse? Y
Packet's [Addr, Dir, RespCmd]: [1169776, 1, 5]
system.cpu.dcache.cpu_side::sendTimingResp: hasPC? 1, PC = 4720000, hasContextId? 1, contextID = 0, time = 34335000, Addr = 1169776, Dir = 1, Cmd = 5, InList? Y
system.cpu.dcache.cpu_side::sendTimingResp: hasPC? 1, PC = 4720000, hasContextId? 1, contextID = 0
system.cpu.dcache.cpu_side::recvTimingReq: hasPC? 1, PC = 4720008, hasContextId? 1, contextID = 0, Size = 8, MemCmd: WriteReq, needsResponse? Y
Packet's [Addr, Dir, RespCmd]: [1169752, 1, 5]
system.cpu.dcache.cpu_side::sendTimingResp: hasPC? 1, PC = 4720008, hasContextId? 1, contextID = 0, time = 34335000, Addr = 1169752, Dir = 1, Cmd = 5, InList? Y
system.cpu.dcache.cpu_side::sendTimingResp: hasPC? 1, PC = 4720008, hasContextId? 1, contextID = 0
system.cpu.dcache.cpu_side::recvTimingReq: hasPC? 1, PC = 4720020, hasContextId? 1, contextID = 0, Size = 8, MemCmd: WriteReq, needsResponse? Y
Packet's [Addr, Dir, RespCmd]: [1169760, 1, 5]
system.cpu.dcache.cpu_side::sendTimingResp: hasPC? 1, PC = 4720020, hasContextId? 1, contextID = 0, time = 34335000, Addr = 1169760, Dir = 1, Cmd = 5, InList? Y
system.cpu.dcache.cpu_side::sendTimingResp: hasPC? 1, PC = 4720020, hasContextId? 1, contextID = 0
system.cpu.dcache.cpu_side::recvTimingReq: hasPC? 1, PC = 4720025, hasContextId? 1, contextID = 0, Size = 8, MemCmd: WriteReq, needsResponse? Y
Packet's [Addr, Dir, RespCmd]: [1169768, 1, 5]
system.cpu.dcache.cpu_side::sendTimingResp: hasPC? 1, PC = 4720025, hasContextId? 1, contextID = 0, time = 34335000, Addr = 1169768, Dir = 1, Cmd = 5, InList? Y
system.cpu.dcache.cpu_side::sendTimingResp: hasPC? 1, PC = 4720025, hasContextId? 1, contextID = 0
system.cpu.dcache.cpu_side::recvTimingReq: hasPC? 1, PC = 4720128, hasContextId? 1, contextID = 0, Size = 8, MemCmd: WriteReq, needsResponse? Y
Packet's [Addr, Dir, RespCmd]: [1169640, 1, 5]
system.cpu.dcache.cpu_side::sendTimingResp: hasPC? 1, PC = 4720128, hasContextId? 1, contextID = 0, time = 34343000, Addr = 1169640, Dir = 1, Cmd = 5, InList? Y
system.cpu.dcache.cpu_side::sendTimingResp: hasPC? 1, PC = 4720128, hasContextId? 1, contextID = 0
system.cpu.dcache.cpu_side::recvTimingReq: hasPC? 1, PC = 4720140, hasContextId? 1, contextID = 0, Size = 8, MemCmd: WriteReq, needsResponse? Y
Packet's [Addr, Dir, RespCmd]: [1169640, 1, 5]
system.cpu.dcache.cpu_side::sendTimingResp: hasPC? 1, PC = 4720140, hasContextId? 1, contextID = 0, time = 34345500, Addr = 1169640, Dir = 1, Cmd = 5, InList? Y
system.cpu.dcache.cpu_side::sendTimingResp: hasPC? 1, PC = 4720140, hasContextId? 1, contextID = 0
system.cpu.dcache.cpu_side::recvTimingReq: hasPC? 1, PC = 4228055, hasContextId? 1, contextID = 0, Size = 4, MemCmd: WriteReq, needsResponse? Y
Packet's [Addr, Dir, RespCmd]: [1152132, 1, 5]
system.cpu.dcache.cpu_side::sendTimingResp: hasPC? 1, PC = 4228055, hasContextId? 1, contextID = 0, time = 34349000, Addr = 1152132, Dir = 1, Cmd = 5, InList? Y
system.cpu.dcache.cpu_side::sendTimingResp: hasPC? 1, PC = 4228055, hasContextId? 1, contextID = 0
system.cpu.dcache.cpu_side::recvTimingReq: hasPC? 1, PC = 4228050, hasContextId? 1, contextID = 0, Size = 8, MemCmd: WriteReq, needsResponse? Y
Packet's [Addr, Dir, RespCmd]: [1169784, 1, 5]
system.cpu.dcache.cpu_side::sendTimingResp: hasPC? 1, PC = 4228050, hasContextId? 1, contextID = 0, time = 34350000, Addr = 1169784, Dir = 1, Cmd = 5, InList? Y
system.cpu.dcache.cpu_side::sendTimingResp: hasPC? 1, PC = 4228050, hasContextId? 1, contextID = 0
system.cpu.dcache.cpu_side::recvTimingReq: hasPC? 1, PC = 4720000, hasContextId? 1, contextID = 0, Size = 8, MemCmd: WriteReq, needsResponse? Y
Packet's [Addr, Dir, RespCmd]: [1169776, 1, 5]
system.cpu.dcache.cpu_side::sendTimingResp: hasPC? 1, PC = 4720000, hasContextId? 1, contextID = 0, time = 34350500, Addr = 1169776, Dir = 1, Cmd = 5, InList? Y
system.cpu.dcache.cpu_side::sendTimingResp: hasPC? 1, PC = 4720000, hasContextId? 1, contextID = 0
system.cpu.dcache.cpu_side::recvTimingReq: hasPC? 1, PC = 4720071, hasContextId? 1, contextID = 0, Size = 8, MemCmd: ReadReq, needsResponse? Y
Packet's [Addr, Dir, RespCmd]: [1177600, 1, 2]
system.cpu.dcache.cpu_side::recvTimingReq: hasPC? 1, PC = 4720008, hasContextId? 1, contextID = 0, Size = 8, MemCmd: WriteReq, needsResponse? Y
Packet's [Addr, Dir, RespCmd]: [1169752, 1, 5]
system.cpu.dcache.cpu_side::recvTimingReq: hasPC? 1, PC = 4720091, hasContextId? 1, contextID = 0, Size = 8, MemCmd: ReadReq, needsResponse? Y
Packet's [Addr, Dir, RespCmd]: [815976, 1, 2]
system.cpu.dcache.cpu_side::recvTimingReq: hasPC? 1, PC = 4720096, hasContextId? 1, contextID = 0, Size = 8, MemCmd: ReadReq, needsResponse? Y
Packet's [Addr, Dir, RespCmd]: [815968, 1, 2]
system.cpu.dcache.cpu_side::sendTimingResp: hasPC? 1, PC = 4720071, hasContextId? 1, contextID = 0, time = 34424500, Addr = 1177600, Dir = 1, Cmd = 2, InList? Y
system.cpu.dcache.cpu_side::sendTimingResp: hasPC? 1, PC = 4720071, hasContextId? 1, contextID = 0
system.cpu.dcache.cpu_side::sendTimingResp: hasPC? 1, PC = 4720008, hasContextId? 1, contextID = 0, time = 34350500, Addr = 1169752, Dir = 1, Cmd = 5, InList? Y
system.cpu.dcache.cpu_side::sendTimingResp: hasPC? 1, PC = 4720008, hasContextId? 1, contextID = 0
system.cpu.dcache.cpu_side::sendTimingResp: hasPC? 1, PC = 4720091, hasContextId? 1, contextID = 0, time = 34425000, Addr = 815976, Dir = 1, Cmd = 2, InList? Y
system.cpu.dcache.cpu_side::sendTimingResp: hasPC? 1, PC = 4720091, hasContextId? 1, contextID = 0
system.cpu.dcache.cpu_side::recvTimingReq: hasPC? 1, PC = 4720075, hasContextId? 1, contextID = 0, Size = 8, MemCmd: ReadReq, needsResponse? Y
Packet's [Addr, Dir, RespCmd]: [800096, 1, 2]
system.cpu.dcache.cpu_side::recvTimingReq: hasPC? 1, PC = 4720020, hasContextId? 1, contextID = 0, Size = 8, MemCmd: WriteReq, needsResponse? Y
Packet's [Addr, Dir, RespCmd]: [1169760, 1, 5]
system.cpu.dcache.cpu_side::sendTimingResp: hasPC? 1, PC = 4720096, hasContextId? 1, contextID = 0, time = 34425000, Addr = 815968, Dir = 1, Cmd = 2, InList? Y
system.cpu.dcache.cpu_side::sendTimingResp: hasPC? 1, PC = 4720096, hasContextId? 1, contextID = 0
system.cpu.dcache.cpu_side::sendTimingResp: hasPC? 1, PC = 4720075, hasContextId? 1, contextID = 0, time = 34426000, Addr = 800096, Dir = 1, Cmd = 2, InList? Y
system.cpu.dcache.cpu_side::sendTimingResp: hasPC? 1, PC = 4720075, hasContextId? 1, contextID = 0
system.cpu.dcache.cpu_side::recvTimingReq: hasPC? 1, PC = 4720099, hasContextId? 1, contextID = 0, Size = 8, MemCmd: ReadReq, needsResponse? Y
Packet's [Addr, Dir, RespCmd]: [816048, 1, 2]
system.cpu.dcache.cpu_side::recvTimingReq: hasPC? 1, PC = 4720110, hasContextId? 1, contextID = 0, Size = 8, MemCmd: ReadReq, needsResponse? Y
Packet's [Addr, Dir, RespCmd]: [816000, 1, 2]
system.cpu.dcache.cpu_side::recvTimingReq: hasPC? 1, PC = 4767936, hasContextId? 1, contextID = 0, Size = 8, MemCmd: ReadReq, needsResponse? Y
Packet's [Addr, Dir, RespCmd]: [1166208, 1, 2]
system.cpu.dcache.cpu_side::sendTimingResp: hasPC? 1, PC = 4720020, hasContextId? 1, contextID = 0, time = 34350500, Addr = 1169760, Dir = 1, Cmd = 5, InList? Y
system.cpu.dcache.cpu_side::sendTimingResp: hasPC? 1, PC = 4720020, hasContextId? 1, contextID = 0
system.cpu.dcache.cpu_side::recvTimingReq: hasPC? 1, PC = 4720078, hasContextId? 1, contextID = 0, Size = 8, MemCmd: ReadReq, needsResponse? Y
Packet's [Addr, Dir, RespCmd]: [829800, 1, 2]
system.cpu.dcache.cpu_side::recvTimingReq: hasPC? 1, PC = 4720025, hasContextId? 1, contextID = 0, Size = 8, MemCmd: WriteReq, needsResponse? Y
Packet's [Addr, Dir, RespCmd]: [1169768, 1, 5]
system.cpu.dcache.cpu_side::sendTimingResp: hasPC? 1, PC = 4720099, hasContextId? 1, contextID = 0, time = 34427000, Addr = 816048, Dir = 1, Cmd = 2, InList? Y
system.cpu.dcache.cpu_side::sendTimingResp: hasPC? 1, PC = 4720099, hasContextId? 1, contextID = 0
system.cpu.dcache.cpu_side::recvTimingReq: hasPC? 1, PC = 4720137, hasContextId? 1, contextID = 0, Size = 8, MemCmd: ReadReq, needsResponse? Y
Packet's [Addr, Dir, RespCmd]: [815968, 1, 2]
system.cpu.dcache.cpu_side::sendTimingResp: hasPC? 1, PC = 4720110, hasContextId? 1, contextID = 0, time = 34427000, Addr = 816000, Dir = 1, Cmd = 2, InList? Y
system.cpu.dcache.cpu_side::sendTimingResp: hasPC? 1, PC = 4720110, hasContextId? 1, contextID = 0
system.cpu.dcache.cpu_side::sendTimingResp: hasPC? 1, PC = 4767936, hasContextId? 1, contextID = 0, time = 34427000, Addr = 1166208, Dir = 1, Cmd = 2, InList? Y
system.cpu.dcache.cpu_side::sendTimingResp: hasPC? 1, PC = 4767936, hasContextId? 1, contextID = 0
system.cpu.dcache.cpu_side::sendTimingResp: hasPC? 1, PC = 4720078, hasContextId? 1, contextID = 0, time = 34427500, Addr = 829800, Dir = 1, Cmd = 2, InList? Y
system.cpu.dcache.cpu_side::sendTimingResp: hasPC? 1, PC = 4720078, hasContextId? 1, contextID = 0
system.cpu.dcache.cpu_side::sendTimingResp: hasPC? 1, PC = 4720025, hasContextId? 1, contextID = 0, time = 34350500, Addr = 1169768, Dir = 1, Cmd = 5, InList? Y
system.cpu.dcache.cpu_side::sendTimingResp: hasPC? 1, PC = 4720025, hasContextId? 1, contextID = 0
system.cpu.dcache.cpu_side::sendTimingResp: hasPC? 1, PC = 4720137, hasContextId? 1, contextID = 0, time = 34428000, Addr = 815968, Dir = 1, Cmd = 2, InList? Y
system.cpu.dcache.cpu_side::sendTimingResp: hasPC? 1, PC = 4720137, hasContextId? 1, contextID = 0
system.cpu.dcache.cpu_side::recvTimingReq: hasPC? 1, PC = 4720128, hasContextId? 1, contextID = 0, Size = 8, MemCmd: WriteReq, needsResponse? Y
Packet's [Addr, Dir, RespCmd]: [1169640, 1, 5]
system.cpu.dcache.cpu_side::sendTimingResp: hasPC? 1, PC = 4720128, hasContextId? 1, contextID = 0, time = 34358500, Addr = 1169640, Dir = 1, Cmd = 5, InList? Y
system.cpu.dcache.cpu_side::sendTimingResp: hasPC? 1, PC = 4720128, hasContextId? 1, contextID = 0
system.cpu.dcache.cpu_side::recvTimingReq: hasPC? 1, PC = 4720140, hasContextId? 1, contextID = 0, Size = 8, MemCmd: WriteReq, needsResponse? Y
Packet's [Addr, Dir, RespCmd]: [1169640, 1, 5]
system.cpu.dcache.cpu_side::sendTimingResp: hasPC? 1, PC = 4720140, hasContextId? 1, contextID = 0, time = 34361000, Addr = 1169640, Dir = 1, Cmd = 5, InList? Y
system.cpu.dcache.cpu_side::sendTimingResp: hasPC? 1, PC = 4720140, hasContextId? 1, contextID = 0
system.cpu.dcache.cpu_side::recvTimingReq: hasPC? 1, PC = 4228055, hasContextId? 1, contextID = 0, Size = 4, MemCmd: WriteReq, needsResponse? Y
Packet's [Addr, Dir, RespCmd]: [1152136, 1, 5]
system.cpu.dcache.cpu_side::sendTimingResp: hasPC? 1, PC = 4228055, hasContextId? 1, contextID = 0, time = 34364500, Addr = 1152136, Dir = 1, Cmd = 5, InList? Y
system.cpu.dcache.cpu_side::sendTimingResp: hasPC? 1, PC = 4228055, hasContextId? 1, contextID = 0
system.cpu.dcache.cpu_side::recvTimingReq: hasPC? 1, PC = 4228050, hasContextId? 1, contextID = 0, Size = 8, MemCmd: WriteReq, needsResponse? Y
Packet's [Addr, Dir, RespCmd]: [1169784, 1, 5]
system.cpu.dcache.cpu_side::sendTimingResp: hasPC? 1, PC = 4228050, hasContextId? 1, contextID = 0, time = 34365500, Addr = 1169784, Dir = 1, Cmd = 5, InList? Y
system.cpu.dcache.cpu_side::sendTimingResp: hasPC? 1, PC = 4228050, hasContextId? 1, contextID = 0
system.cpu.dcache.cpu_side::recvTimingReq: hasPC? 1, PC = 4720000, hasContextId? 1, contextID = 0, Size = 8, MemCmd: WriteReq, needsResponse? Y
Packet's [Addr, Dir, RespCmd]: [1169776, 1, 5]
system.cpu.dcache.cpu_side::sendTimingResp: hasPC? 1, PC = 4720000, hasContextId? 1, contextID = 0, time = 34366000, Addr = 1169776, Dir = 1, Cmd = 5, InList? Y
system.cpu.dcache.cpu_side::sendTimingResp: hasPC? 1, PC = 4720000, hasContextId? 1, contextID = 0
system.cpu.dcache.cpu_side::recvTimingReq: hasPC? 1, PC = 4720008, hasContextId? 1, contextID = 0, Size = 8, MemCmd: WriteReq, needsResponse? Y
Packet's [Addr, Dir, RespCmd]: [1169752, 1, 5]
system.cpu.dcache.cpu_side::sendTimingResp: hasPC? 1, PC = 4720008, hasContextId? 1, contextID = 0, time = 34366000, Addr = 1169752, Dir = 1, Cmd = 5, InList? Y
system.cpu.dcache.cpu_side::sendTimingResp: hasPC? 1, PC = 4720008, hasContextId? 1, contextID = 0
system.cpu.dcache.cpu_side::recvTimingReq: hasPC? 1, PC = 4720020, hasContextId? 1, contextID = 0, Size = 8, MemCmd: WriteReq, needsResponse? Y
Packet's [Addr, Dir, RespCmd]: [1169760, 1, 5]
system.cpu.dcache.cpu_side::sendTimingResp: hasPC? 1, PC = 4720020, hasContextId? 1, contextID = 0, time = 34366000, Addr = 1169760, Dir = 1, Cmd = 5, InList? Y
system.cpu.dcache.cpu_side::sendTimingResp: hasPC? 1, PC = 4720020, hasContextId? 1, contextID = 0
system.cpu.dcache.cpu_side::recvTimingReq: hasPC? 1, PC = 4720071, hasContextId? 1, contextID = 0, Size = 8, MemCmd: ReadReq, needsResponse? Y
Packet's [Addr, Dir, RespCmd]: [1177600, 1, 2]
system.cpu.dcache.cpu_side::recvTimingReq: hasPC? 1, PC = 4720025, hasContextId? 1, contextID = 0, Size = 8, MemCmd: WriteReq, needsResponse? Y
Packet's [Addr, Dir, RespCmd]: [1169768, 1, 5]
system.cpu.dcache.cpu_side::sendTimingResp: hasPC? 1, PC = 4720071, hasContextId? 1, contextID = 0, time = 34436000, Addr = 1177600, Dir = 1, Cmd = 2, InList? Y
system.cpu.dcache.cpu_side::sendTimingResp: hasPC? 1, PC = 4720071, hasContextId? 1, contextID = 0
Exiting @ tick 34437000 because user interrupt received
