gem5 Simulator System.  http://gem5.org
gem5 is copyrighted software; use the --copyright option for details.

gem5 compiled May 16 2017 16:59:59
gem5 started May 16 2017 17:23:36
gem5 executing on ladon.cse.psu.edu, pid 53924
command line: /home/mdl/mjl5868/GEM5/Mem2D/New_Version/2dmem_v0_1_addaddrbit/V0_1_AddAddrBit/gem5/build/X86/gem5.opt --redirect-stdout --stdout-file=NVMain_build_test_May16_2017.gemout --redirect-stderr --stderr-file=NVMain_build_test_May16_2017.gemerr --stats-file=NVMain_build_test_May16_2017.stat /home/mdl/mjl5868/GEM5/Mem2D/New_Version/2dmem_v0_1_addaddrbit/V0_1_AddAddrBit/gem5/configs/example/se.py --output=NVMain_build_test_May16_2017.appout --errout=NVMain_build_test_May16_2017.apperr -c /home/mdl/mjl5868/GEM5/Mem2D/New_Version/2dmem_v0_1_addaddrbit/V0_1_AddAddrBit/Run_test_pbs/SE_test/test-bin --caches --l2cache --cpu-type=detailed --MJL_row_width=8 --MJL_PC2DirFile=test.txt --mem-size=8192MB --mem-type=NVMainMemory --nvmain-config=/home/mdl/mjl5868/Projects/NVMain/mrp5060-nvmain-e628de9eb870/Config/PCM_ISSCC_2012_4GB.config

Global frequency set at 1000000000000 ticks per second
NVMainControl: Reading NVMain config file: /home/mdl/mjl5868/Projects/NVMain/mrp5060-nvmain-e628de9eb870/Config/PCM_ISSCC_2012_4GB.config.
system.cpu.dcache.tags::MJL_rowWidth = 8
system.cpu.dcache::MJL_rowWidth = 8
system.cpu.dcache::MJL_PC2DirFilname = test.txt
MJL_Error: Could not open test input file!
After reading the file
system.cpu.dtb_walker_cache.tags::MJL_rowWidth = 8
system.cpu.dtb_walker_cache::MJL_rowWidth = 8
system.cpu.dtb_walker_cache::MJL_PC2DirFilname = PC2Dir.txt
system.cpu.icache.tags::MJL_rowWidth = 8
system.cpu.icache::MJL_rowWidth = 8
system.cpu.icache::MJL_PC2DirFilname = PC2Dir.txt
system.cpu.itb_walker_cache.tags::MJL_rowWidth = 8
system.cpu.itb_walker_cache::MJL_rowWidth = 8
system.cpu.itb_walker_cache::MJL_PC2DirFilname = PC2Dir.txt
system.l2.tags::MJL_rowWidth = 8
system.l2::MJL_rowWidth = 8
system.l2::MJL_PC2DirFilname = PC2Dir.txt
Config: Warning: Key EventDriven is not set. Using 'false' as the default. Please configure this value if this is wrong.
NVMain: GlobalEventQueue: Added a memory subsystem running at 400MHz. My frequency is 2000MHz.
Config: Warning: Key EIDD0 is not set. Using '85' as the default. Please configure this value if this is wrong.
Config: Warning: Key EIDD1 is not set. Using '54' as the default. Please configure this value if this is wrong.
Config: Warning: Key EIDD2P0 is not set. Using '30' as the default. Please configure this value if this is wrong.
Config: Warning: Key EIDD2P1 is not set. Using '30' as the default. Please configure this value if this is wrong.
Config: Warning: Key EIDD2N is not set. Using '37' as the default. Please configure this value if this is wrong.
Config: Warning: Key EIDD3P is not set. Using '35' as the default. Please configure this value if this is wrong.
Config: Warning: Key EIDD3N is not set. Using '40' as the default. Please configure this value if this is wrong.
Config: Warning: Key EIDD4R is not set. Using '160' as the default. Please configure this value if this is wrong.
Config: Warning: Key EIDD4W is not set. Using '165' as the default. Please configure this value if this is wrong.
Config: Warning: Key EIDD5B is not set. Using '200' as the default. Please configure this value if this is wrong.
Config: Warning: Key EIDD6 is not set. Using '12' as the default. Please configure this value if this is wrong.
Config: Warning: Key Eactstdby is not set. Using '0.09009' as the default. Please configure this value if this is wrong.
Config: Warning: Key Eprestdby is not set. Using '0.083333' as the default. Please configure this value if this is wrong.
Config: Warning: Key Rtt_nom is not set. Using '30' as the default. Please configure this value if this is wrong.
Config: Warning: Key Rtt_wr is not set. Using '60' as the default. Please configure this value if this is wrong.
Config: Warning: Key Rtt_cont is not set. Using '75' as the default. Please configure this value if this is wrong.
Config: Warning: Key VDDQ is not set. Using '1.5' as the default. Please configure this value if this is wrong.
Config: Warning: Key VSSQ is not set. Using '0' as the default. Please configure this value if this is wrong.
Config: Warning: Key RanksPerDIMM is not set. Using '1' as the default. Please configure this value if this is wrong.
Config: Warning: Key DataEncoder is not set. Using 'default' as the default. Please configure this value if this is wrong.
Config: Warning: Key UseLowPower is not set. Using 'true' as the default. Please configure this value if this is wrong.
Config: Warning: Key PowerDownMode is not set. Using 'FASTEXIT' as the default. Please configure this value if this is wrong.
Config: Warning: Key PrintAllDevices is not set. Using 'false' as the default. Please configure this value if this is wrong.
Config: Warning: Key PrintConfig is not set. Using 'false' as the default. Please configure this value if this is wrong.
Config: Warning: Key StaggerRefresh is not set. Using 'false' as the default. Please configure this value if this is wrong.
Config: Warning: Key UsePrecharge is not set. Using 'true' as the default. Please configure this value if this is wrong.
Config: Warning: Key OffChipLatency is not set. Using '10' as the default. Please configure this value if this is wrong.
Config: Warning: Key RBSize is not set. Using '32' as the default. Please configure this value if this is wrong.
Config: Warning: Key MemoryPrefetcher is not set. Using 'none' as the default. Please configure this value if this is wrong.
Config: Warning: Key PrefetchBufferSize is not set. Using '32' as the default. Please configure this value if this is wrong.
Config: Warning: Key MLCLevels is not set. Using '1' as the default. Please configure this value if this is wrong.
Config: Warning: Key WPVariance is not set. Using '1' as the default. Please configure this value if this is wrong.
Config: Warning: Key UniformWrites is not set. Using 'true' as the default. Please configure this value if this is wrong.
Config: Warning: Key WriteAllBits is not set. Using 'true' as the default. Please configure this value if this is wrong.
Config: Warning: Key Ereset is not set. Using '0.054331' as the default. Please configure this value if this is wrong.
Config: Warning: Key Eset is not set. Using '0.101581' as the default. Please configure this value if this is wrong.
Config: Warning: Key nWP00 is not set. Using '0' as the default. Please configure this value if this is wrong.
Config: Warning: Key nWP01 is not set. Using '7' as the default. Please configure this value if this is wrong.
Config: Warning: Key nWP10 is not set. Using '5' as the default. Please configure this value if this is wrong.
Config: Warning: Key nWP11 is not set. Using '1' as the default. Please configure this value if this is wrong.
Config: Warning: Key WPMaxVariance is not set. Using '2' as the default. Please configure this value if this is wrong.
Config: Warning: Key DeadlockTimer is not set. Using '10000000' as the default. Please configure this value if this is wrong.
Config: Warning: Key EnableDebug is not set. Using 'false' as the default. Please configure this value if this is wrong.
Config: Warning: Key WritePausing is not set. Using 'false' as the default. Please configure this value if this is wrong.
Config: Warning: Key PauseThreshold is not set. Using '0.4' as the default. Please configure this value if this is wrong.
Config: Warning: Key MaxCancellations is not set. Using '4' as the default. Please configure this value if this is wrong.
NVMain: the address mapping order is 
	Sub-Array 1
	Row 6
	Column 2
	Bank 4
	Rank 5
	Channel 3
Config: Warning: Key CONFIG_CHANNEL0 is not set. Using '' as the default. Please configure this value if this is wrong.
Created a First Ready First Come First Serve memory         controller with write queue!
Config: Warning: Key EventDriven is not set. Using 'false' as the default. Please configure this value if this is wrong.
Config: Warning: Key EIDD0 is not set. Using '85' as the default. Please configure this value if this is wrong.
Config: Warning: Key EIDD1 is not set. Using '54' as the default. Please configure this value if this is wrong.
Config: Warning: Key EIDD2P0 is not set. Using '30' as the default. Please configure this value if this is wrong.
Config: Warning: Key EIDD2P1 is not set. Using '30' as the default. Please configure this value if this is wrong.
Config: Warning: Key EIDD2N is not set. Using '37' as the default. Please configure this value if this is wrong.
Config: Warning: Key EIDD3P is not set. Using '35' as the default. Please configure this value if this is wrong.
Config: Warning: Key EIDD3N is not set. Using '40' as the default. Please configure this value if this is wrong.
Config: Warning: Key EIDD4R is not set. Using '160' as the default. Please configure this value if this is wrong.
Config: Warning: Key EIDD4W is not set. Using '165' as the default. Please configure this value if this is wrong.
Config: Warning: Key EIDD5B is not set. Using '200' as the default. Please configure this value if this is wrong.
Config: Warning: Key EIDD6 is not set. Using '12' as the default. Please configure this value if this is wrong.
Config: Warning: Key Eactstdby is not set. Using '0.09009' as the default. Please configure this value if this is wrong.
Config: Warning: Key Eprestdby is not set. Using '0.083333' as the default. Please configure this value if this is wrong.
Config: Warning: Key Rtt_nom is not set. Using '30' as the default. Please configure this value if this is wrong.
Config: Warning: Key Rtt_wr is not set. Using '60' as the default. Please configure this value if this is wrong.
Config: Warning: Key Rtt_cont is not set. Using '75' as the default. Please configure this value if this is wrong.
Config: Warning: Key VDDQ is not set. Using '1.5' as the default. Please configure this value if this is wrong.
Config: Warning: Key VSSQ is not set. Using '0' as the default. Please configure this value if this is wrong.
Config: Warning: Key RanksPerDIMM is not set. Using '1' as the default. Please configure this value if this is wrong.
Config: Warning: Key DataEncoder is not set. Using 'default' as the default. Please configure this value if this is wrong.
Config: Warning: Key UseLowPower is not set. Using 'true' as the default. Please configure this value if this is wrong.
Config: Warning: Key PowerDownMode is not set. Using 'FASTEXIT' as the default. Please configure this value if this is wrong.
Config: Warning: Key PrintAllDevices is not set. Using 'false' as the default. Please configure this value if this is wrong.
Config: Warning: Key PrintConfig is not set. Using 'false' as the default. Please configure this value if this is wrong.
Config: Warning: Key StaggerRefresh is not set. Using 'false' as the default. Please configure this value if this is wrong.
Config: Warning: Key UsePrecharge is not set. Using 'true' as the default. Please configure this value if this is wrong.
Config: Warning: Key OffChipLatency is not set. Using '10' as the default. Please configure this value if this is wrong.
Config: Warning: Key RBSize is not set. Using '32' as the default. Please configure this value if this is wrong.
Config: Warning: Key MemoryPrefetcher is not set. Using 'none' as the default. Please configure this value if this is wrong.
Config: Warning: Key PrefetchBufferSize is not set. Using '32' as the default. Please configure this value if this is wrong.
Config: Warning: Key MLCLevels is not set. Using '1' as the default. Please configure this value if this is wrong.
Config: Warning: Key WPVariance is not set. Using '1' as the default. Please configure this value if this is wrong.
Config: Warning: Key UniformWrites is not set. Using 'true' as the default. Please configure this value if this is wrong.
Config: Warning: Key WriteAllBits is not set. Using 'true' as the default. Please configure this value if this is wrong.
Config: Warning: Key Ereset is not set. Using '0.054331' as the default. Please configure this value if this is wrong.
Config: Warning: Key Eset is not set. Using '0.101581' as the default. Please configure this value if this is wrong.
Config: Warning: Key nWP00 is not set. Using '0' as the default. Please configure this value if this is wrong.
Config: Warning: Key nWP01 is not set. Using '7' as the default. Please configure this value if this is wrong.
Config: Warning: Key nWP10 is not set. Using '5' as the default. Please configure this value if this is wrong.
Config: Warning: Key nWP11 is not set. Using '1' as the default. Please configure this value if this is wrong.
Config: Warning: Key WPMaxVariance is not set. Using '2' as the default. Please configure this value if this is wrong.
Config: Warning: Key DeadlockTimer is not set. Using '10000000' as the default. Please configure this value if this is wrong.
Config: Warning: Key EnableDebug is not set. Using 'false' as the default. Please configure this value if this is wrong.
Config: Warning: Key WritePausing is not set. Using 'false' as the default. Please configure this value if this is wrong.
Config: Warning: Key PauseThreshold is not set. Using '0.4' as the default. Please configure this value if this is wrong.
Config: Warning: Key MaxCancellations is not set. Using '4' as the default. Please configure this value if this is wrong.
Config: Warning: Key Decoder is not set. Using '' as the default. Please configure this value if this is wrong.
Config: Warning: Key RankType is not set. Using '' as the default. Please configure this value if this is wrong.
Creating 4 banks in all 8 devices.
Config: Warning: Key BankType is not set. Using '' as the default. Please configure this value if this is wrong.
NVMain: the address mapping order is 
	Sub-Array 1
	Row 6
	Column 2
	Bank 4
	Rank 5
	Channel 3
defaultMemory.channel0.FRFCFS-WQF capacity is 4096 MB.
Creating 4 command queues.
system.mem_ctrls::functionalAccess() Cmd: WriteReq, Size: 64, addr: 0, PC: NoPC, time: 0
system.mem_ctrls::functionalAccess() Cmd: WriteReq, Size: 64, addr: 100, PC: NoPC, time: 0
system.mem_ctrls::functionalAccess() Cmd: WriteReq, Size: 64, addr: 200, PC: NoPC, time: 0
system.mem_ctrls::functionalAccess() Cmd: WriteReq, Size: 64, addr: 300, PC: NoPC, time: 0
system.mem_ctrls::functionalAccess() Cmd: WriteReq, Size: 64, addr: 400, PC: NoPC, time: 0
system.mem_ctrls::functionalAccess() Cmd: WriteReq, Size: 64, addr: 500, PC: NoPC, time: 0
system.mem_ctrls::functionalAccess() Cmd: WriteReq, Size: 64, addr: 600, PC: NoPC, time: 0
system.mem_ctrls::functionalAccess() Cmd: WriteReq, Size: 64, addr: 700, PC: NoPC, time: 0
system.mem_ctrls::functionalAccess() Cmd: WriteReq, Size: 64, addr: 1000, PC: NoPC, time: 0
system.mem_ctrls::functionalAccess() Cmd: WriteReq, Size: 64, addr: 1100, PC: NoPC, time: 0
system.mem_ctrls::functionalAccess() Cmd: WriteReq, Size: 64, addr: 1200, PC: NoPC, time: 0
system.mem_ctrls::functionalAccess() Cmd: WriteReq, Size: 64, addr: 1300, PC: NoPC, time: 0
system.mem_ctrls::functionalAccess() Cmd: WriteReq, Size: 64, addr: 1400, PC: NoPC, time: 0
system.mem_ctrls::functionalAccess() Cmd: WriteReq, Size: 64, addr: 1500, PC: NoPC, time: 0
system.mem_ctrls::functionalAccess() Cmd: WriteReq, Size: 64, addr: 1600, PC: NoPC, time: 0
system.mem_ctrls::functionalAccess() Cmd: WriteReq, Size: 64, addr: 1700, PC: NoPC, time: 0
system.mem_ctrls::functionalAccess() Cmd: WriteReq, Size: 64, addr: 2000, PC: NoPC, time: 0
system.mem_ctrls::functionalAccess() Cmd: WriteReq, Size: 64, addr: 2100, PC: NoPC, time: 0
system.mem_ctrls::functionalAccess() Cmd: WriteReq, Size: 64, addr: 2200, PC: NoPC, time: 0
system.mem_ctrls::functionalAccess() Cmd: WriteReq, Size: 64, addr: 2300, PC: NoPC, time: 0
system.mem_ctrls::functionalAccess() Cmd: WriteReq, Size: 64, addr: 2400, PC: NoPC, time: 0
system.mem_ctrls::functionalAccess() Cmd: WriteReq, Size: 64, addr: 2500, PC: NoPC, time: 0
system.mem_ctrls::functionalAccess() Cmd: WriteReq, Size: 64, addr: 2600, PC: NoPC, time: 0
system.mem_ctrls::functionalAccess() Cmd: WriteReq, Size: 64, addr: 2700, PC: NoPC, time: 0
system.mem_ctrls::functionalAccess() Cmd: WriteReq, Size: 64, addr: 3000, PC: NoPC, time: 0
system.mem_ctrls::functionalAccess() Cmd: WriteReq, Size: 64, addr: 3100, PC: NoPC, time: 0
system.mem_ctrls::functionalAccess() Cmd: WriteReq, Size: 64, addr: 3200, PC: NoPC, time: 0
system.mem_ctrls::functionalAccess() Cmd: WriteReq, Size: 64, addr: 3300, PC: NoPC, time: 0
system.mem_ctrls::functionalAccess() Cmd: WriteReq, Size: 64, addr: 3400, PC: NoPC, time: 0
system.mem_ctrls::functionalAccess() Cmd: WriteReq, Size: 64, addr: 3500, PC: NoPC, time: 0
system.mem_ctrls::functionalAccess() Cmd: WriteReq, Size: 64, addr: 3600, PC: NoPC, time: 0
system.mem_ctrls::functionalAccess() Cmd: WriteReq, Size: 64, addr: 3700, PC: NoPC, time: 0
system.mem_ctrls::functionalAccess() Cmd: WriteReq, Size: 64, addr: 4000, PC: NoPC, time: 0
system.mem_ctrls::functionalAccess() Cmd: WriteReq, Size: 64, addr: 4100, PC: NoPC, time: 0
system.mem_ctrls::functionalAccess() Cmd: WriteReq, Size: 64, addr: 4200, PC: NoPC, time: 0
system.mem_ctrls::functionalAccess() Cmd: WriteReq, Size: 64, addr: 4300, PC: NoPC, time: 0
system.mem_ctrls::functionalAccess() Cmd: WriteReq, Size: 64, addr: 4400, PC: NoPC, time: 0
system.mem_ctrls::functionalAccess() Cmd: WriteReq, Size: 64, addr: 4500, PC: NoPC, time: 0
system.mem_ctrls::functionalAccess() Cmd: WriteReq, Size: 64, addr: 4600, PC: NoPC, time: 0
system.mem_ctrls::functionalAccess() Cmd: WriteReq, Size: 64, addr: 4700, PC: NoPC, time: 0
system.mem_ctrls::functionalAccess() Cmd: WriteReq, Size: 64, addr: 5000, PC: NoPC, time: 0
system.mem_ctrls::functionalAccess() Cmd: WriteReq, Size: 64, addr: 5100, PC: NoPC, time: 0
system.mem_ctrls::functionalAccess() Cmd: WriteReq, Size: 64, addr: 5200, PC: NoPC, time: 0
system.mem_ctrls::functionalAccess() Cmd: WriteReq, Size: 64, addr: 5300, PC: NoPC, time: 0
system.mem_ctrls::functionalAccess() Cmd: WriteReq, Size: 64, addr: 5400, PC: NoPC, time: 0
system.mem_ctrls::functionalAccess() Cmd: WriteReq, Size: 64, addr: 5500, PC: NoPC, time: 0
system.mem_ctrls::functionalAccess() Cmd: WriteReq, Size: 64, addr: 5600, PC: NoPC, time: 0
system.mem_ctrls::functionalAccess() Cmd: WriteReq, Size: 64, addr: 5700, PC: NoPC, time: 0
system.mem_ctrls::functionalAccess() Cmd: WriteReq, Size: 64, addr: 6000, PC: NoPC, time: 0
system.mem_ctrls::functionalAccess() Cmd: WriteReq, Size: 64, addr: 6100, PC: NoPC, time: 0
system.mem_ctrls::functionalAccess() Cmd: WriteReq, Size: 64, addr: 6200, PC: NoPC, time: 0
system.mem_ctrls::functionalAccess() Cmd: WriteReq, Size: 64, addr: 6300, PC: NoPC, time: 0
system.mem_ctrls::functionalAccess() Cmd: WriteReq, Size: 64, addr: 6400, PC: NoPC, time: 0
system.mem_ctrls::functionalAccess() Cmd: WriteReq, Size: 64, addr: 6500, PC: NoPC, time: 0
system.mem_ctrls::functionalAccess() Cmd: WriteReq, Size: 64, addr: 6600, PC: NoPC, time: 0
system.mem_ctrls::functionalAccess() Cmd: WriteReq, Size: 64, addr: 6700, PC: NoPC, time: 0
system.mem_ctrls::functionalAccess() Cmd: WriteReq, Size: 64, addr: 7000, PC: NoPC, time: 0
system.mem_ctrls::functionalAccess() Cmd: WriteReq, Size: 64, addr: 7100, PC: NoPC, time: 0
system.mem_ctrls::functionalAccess() Cmd: WriteReq, Size: 64, addr: 7200, PC: NoPC, time: 0
system.mem_ctrls::functionalAccess() Cmd: WriteReq, Size: 64, addr: 7300, PC: NoPC, time: 0
system.mem_ctrls::functionalAccess() Cmd: WriteReq, Size: 64, addr: 7400, PC: NoPC, time: 0
system.mem_ctrls::functionalAccess() Cmd: WriteReq, Size: 64, addr: 7500, PC: NoPC, time: 0
system.mem_ctrls::functionalAccess() Cmd: WriteReq, Size: 64, addr: 7600, PC: NoPC, time: 0
system.mem_ctrls::functionalAccess() Cmd: WriteReq, Size: 64, addr: 7700, PC: NoPC, time: 0
system.mem_ctrls::functionalAccess() Cmd: WriteReq, Size: 64, addr: 10000, PC: NoPC, time: 0
system.mem_ctrls::functionalAccess() Cmd: WriteReq, Size: 64, addr: 10100, PC: NoPC, time: 0
system.mem_ctrls::functionalAccess() Cmd: WriteReq, Size: 64, addr: 10200, PC: NoPC, time: 0
system.mem_ctrls::functionalAccess() Cmd: WriteReq, Size: 64, addr: 10300, PC: NoPC, time: 0
system.mem_ctrls::functionalAccess() Cmd: WriteReq, Size: 64, addr: 10400, PC: NoPC, time: 0
system.mem_ctrls::functionalAccess() Cmd: WriteReq, Size: 64, addr: 10500, PC: NoPC, time: 0
system.mem_ctrls::functionalAccess() Cmd: WriteReq, Size: 64, addr: 10600, PC: NoPC, time: 0
system.mem_ctrls::functionalAccess() Cmd: WriteReq, Size: 64, addr: 10700, PC: NoPC, time: 0
system.mem_ctrls::functionalAccess() Cmd: WriteReq, Size: 64, addr: 11000, PC: NoPC, time: 0
system.mem_ctrls::functionalAccess() Cmd: WriteReq, Size: 64, addr: 11100, PC: NoPC, time: 0
system.mem_ctrls::functionalAccess() Cmd: WriteReq, Size: 64, addr: 11200, PC: NoPC, time: 0
system.mem_ctrls::functionalAccess() Cmd: WriteReq, Size: 64, addr: 11300, PC: NoPC, time: 0
system.mem_ctrls::functionalAccess() Cmd: WriteReq, Size: 64, addr: 11400, PC: NoPC, time: 0
system.mem_ctrls::functionalAccess() Cmd: WriteReq, Size: 64, addr: 11500, PC: NoPC, time: 0
system.mem_ctrls::functionalAccess() Cmd: WriteReq, Size: 64, addr: 11600, PC: NoPC, time: 0
system.mem_ctrls::functionalAccess() Cmd: WriteReq, Size: 64, addr: 11700, PC: NoPC, time: 0
system.mem_ctrls::functionalAccess() Cmd: WriteReq, Size: 64, addr: 12000, PC: NoPC, time: 0
system.mem_ctrls::functionalAccess() Cmd: WriteReq, Size: 64, addr: 12100, PC: NoPC, time: 0
system.mem_ctrls::functionalAccess() Cmd: WriteReq, Size: 64, addr: 12200, PC: NoPC, time: 0
system.mem_ctrls::functionalAccess() Cmd: WriteReq, Size: 64, addr: 12300, PC: NoPC, time: 0
system.mem_ctrls::functionalAccess() Cmd: WriteReq, Size: 64, addr: 12400, PC: NoPC, time: 0
system.mem_ctrls::functionalAccess() Cmd: WriteReq, Size: 64, addr: 12500, PC: NoPC, time: 0
system.mem_ctrls::functionalAccess() Cmd: WriteReq, Size: 64, addr: 12600, PC: NoPC, time: 0
system.mem_ctrls::functionalAccess() Cmd: WriteReq, Size: 64, addr: 12700, PC: NoPC, time: 0
system.mem_ctrls::functionalAccess() Cmd: WriteReq, Size: 64, addr: 13000, PC: NoPC, time: 0
system.mem_ctrls::functionalAccess() Cmd: WriteReq, Size: 64, addr: 13100, PC: NoPC, time: 0
system.mem_ctrls::functionalAccess() Cmd: WriteReq, Size: 64, addr: 13200, PC: NoPC, time: 0
system.mem_ctrls::functionalAccess() Cmd: WriteReq, Size: 64, addr: 13300, PC: NoPC, time: 0
system.mem_ctrls::functionalAccess() Cmd: WriteReq, Size: 64, addr: 13400, PC: NoPC, time: 0
system.mem_ctrls::functionalAccess() Cmd: WriteReq, Size: 64, addr: 13500, PC: NoPC, time: 0
system.mem_ctrls::functionalAccess() Cmd: WriteReq, Size: 64, addr: 13600, PC: NoPC, time: 0
system.mem_ctrls::functionalAccess() Cmd: WriteReq, Size: 64, addr: 13700, PC: NoPC, time: 0
system.mem_ctrls::functionalAccess() Cmd: WriteReq, Size: 64, addr: 14000, PC: NoPC, time: 0
system.mem_ctrls::functionalAccess() Cmd: WriteReq, Size: 64, addr: 14100, PC: NoPC, time: 0
system.mem_ctrls::functionalAccess() Cmd: WriteReq, Size: 64, addr: 14200, PC: NoPC, time: 0
system.mem_ctrls::functionalAccess() Cmd: WriteReq, Size: 64, addr: 14300, PC: NoPC, time: 0
system.mem_ctrls::functionalAccess() Cmd: WriteReq, Size: 64, addr: 14400, PC: NoPC, time: 0
system.mem_ctrls::functionalAccess() Cmd: WriteReq, Size: 64, addr: 14500, PC: NoPC, time: 0
system.mem_ctrls::functionalAccess() Cmd: WriteReq, Size: 64, addr: 14600, PC: NoPC, time: 0
system.mem_ctrls::functionalAccess() Cmd: WriteReq, Size: 64, addr: 14700, PC: NoPC, time: 0
system.mem_ctrls::functionalAccess() Cmd: WriteReq, Size: 64, addr: 15000, PC: NoPC, time: 0
system.mem_ctrls::functionalAccess() Cmd: WriteReq, Size: 64, addr: 15100, PC: NoPC, time: 0
system.mem_ctrls::functionalAccess() Cmd: WriteReq, Size: 64, addr: 15200, PC: NoPC, time: 0
system.mem_ctrls::functionalAccess() Cmd: WriteReq, Size: 64, addr: 15300, PC: NoPC, time: 0
system.mem_ctrls::functionalAccess() Cmd: WriteReq, Size: 64, addr: 15400, PC: NoPC, time: 0
system.mem_ctrls::functionalAccess() Cmd: WriteReq, Size: 64, addr: 15500, PC: NoPC, time: 0
system.mem_ctrls::functionalAccess() Cmd: WriteReq, Size: 64, addr: 15600, PC: NoPC, time: 0
system.mem_ctrls::functionalAccess() Cmd: WriteReq, Size: 64, addr: 15700, PC: NoPC, time: 0
system.mem_ctrls::functionalAccess() Cmd: WriteReq, Size: 64, addr: 16000, PC: NoPC, time: 0
system.mem_ctrls::functionalAccess() Cmd: WriteReq, Size: 64, addr: 16100, PC: NoPC, time: 0
system.mem_ctrls::functionalAccess() Cmd: WriteReq, Size: 64, addr: 16200, PC: NoPC, time: 0
system.mem_ctrls::functionalAccess() Cmd: WriteReq, Size: 64, addr: 16300, PC: NoPC, time: 0
system.mem_ctrls::functionalAccess() Cmd: WriteReq, Size: 64, addr: 16400, PC: NoPC, time: 0
system.mem_ctrls::functionalAccess() Cmd: WriteReq, Size: 64, addr: 16500, PC: NoPC, time: 0
system.mem_ctrls::functionalAccess() Cmd: WriteReq, Size: 64, addr: 16600, PC: NoPC, time: 0
system.mem_ctrls::functionalAccess() Cmd: WriteReq, Size: 64, addr: 16700, PC: NoPC, time: 0
system.mem_ctrls::functionalAccess() Cmd: WriteReq, Size: 64, addr: 17000, PC: NoPC, time: 0
system.mem_ctrls::functionalAccess() Cmd: WriteReq, Size: 64, addr: 17100, PC: NoPC, time: 0
system.mem_ctrls::functionalAccess() Cmd: WriteReq, Size: 64, addr: 17200, PC: NoPC, time: 0
system.mem_ctrls::functionalAccess() Cmd: WriteReq, Size: 64, addr: 17300, PC: NoPC, time: 0
system.mem_ctrls::functionalAccess() Cmd: WriteReq, Size: 64, addr: 17400, PC: NoPC, time: 0
system.mem_ctrls::functionalAccess() Cmd: WriteReq, Size: 64, addr: 17500, PC: NoPC, time: 0
system.mem_ctrls::functionalAccess() Cmd: WriteReq, Size: 64, addr: 17600, PC: NoPC, time: 0
system.mem_ctrls::functionalAccess() Cmd: WriteReq, Size: 64, addr: 17700, PC: NoPC, time: 0
system.mem_ctrls::functionalAccess() Cmd: WriteReq, Size: 64, addr: 20000, PC: NoPC, time: 0
system.mem_ctrls::functionalAccess() Cmd: WriteReq, Size: 64, addr: 20100, PC: NoPC, time: 0
system.mem_ctrls::functionalAccess() Cmd: WriteReq, Size: 64, addr: 20200, PC: NoPC, time: 0
system.mem_ctrls::functionalAccess() Cmd: WriteReq, Size: 64, addr: 20300, PC: NoPC, time: 0
system.mem_ctrls::functionalAccess() Cmd: WriteReq, Size: 64, addr: 20400, PC: NoPC, time: 0
system.mem_ctrls::functionalAccess() Cmd: WriteReq, Size: 64, addr: 20500, PC: NoPC, time: 0
system.mem_ctrls::functionalAccess() Cmd: WriteReq, Size: 64, addr: 20600, PC: NoPC, time: 0
system.mem_ctrls::functionalAccess() Cmd: WriteReq, Size: 64, addr: 20700, PC: NoPC, time: 0
system.mem_ctrls::functionalAccess() Cmd: WriteReq, Size: 64, addr: 21000, PC: NoPC, time: 0
system.mem_ctrls::functionalAccess() Cmd: WriteReq, Size: 64, addr: 21100, PC: NoPC, time: 0
system.mem_ctrls::functionalAccess() Cmd: WriteReq, Size: 64, addr: 21200, PC: NoPC, time: 0
system.mem_ctrls::functionalAccess() Cmd: WriteReq, Size: 64, addr: 21300, PC: NoPC, time: 0
system.mem_ctrls::functionalAccess() Cmd: WriteReq, Size: 64, addr: 21400, PC: NoPC, time: 0
system.mem_ctrls::functionalAccess() Cmd: WriteReq, Size: 64, addr: 21500, PC: NoPC, time: 0
system.mem_ctrls::functionalAccess() Cmd: WriteReq, Size: 64, addr: 21600, PC: NoPC, time: 0
system.mem_ctrls::functionalAccess() Cmd: WriteReq, Size: 64, addr: 21700, PC: NoPC, time: 0
system.mem_ctrls::functionalAccess() Cmd: WriteReq, Size: 64, addr: 22000, PC: NoPC, time: 0
system.mem_ctrls::functionalAccess() Cmd: WriteReq, Size: 64, addr: 22100, PC: NoPC, time: 0
system.mem_ctrls::functionalAccess() Cmd: WriteReq, Size: 64, addr: 22200, PC: NoPC, time: 0
system.mem_ctrls::functionalAccess() Cmd: WriteReq, Size: 64, addr: 22300, PC: NoPC, time: 0
system.mem_ctrls::functionalAccess() Cmd: WriteReq, Size: 64, addr: 22400, PC: NoPC, time: 0
system.mem_ctrls::functionalAccess() Cmd: WriteReq, Size: 64, addr: 22500, PC: NoPC, time: 0
system.mem_ctrls::functionalAccess() Cmd: WriteReq, Size: 64, addr: 22600, PC: NoPC, time: 0
system.mem_ctrls::functionalAccess() Cmd: WriteReq, Size: 64, addr: 22700, PC: NoPC, time: 0
system.mem_ctrls::functionalAccess() Cmd: WriteReq, Size: 64, addr: 23000, PC: NoPC, time: 0
system.mem_ctrls::functionalAccess() Cmd: WriteReq, Size: 64, addr: 23100, PC: NoPC, time: 0
system.mem_ctrls::functionalAccess() Cmd: WriteReq, Size: 64, addr: 23200, PC: NoPC, time: 0
system.mem_ctrls::functionalAccess() Cmd: WriteReq, Size: 64, addr: 23300, PC: NoPC, time: 0
system.mem_ctrls::functionalAccess() Cmd: WriteReq, Size: 64, addr: 23400, PC: NoPC, time: 0
system.mem_ctrls::functionalAccess() Cmd: WriteReq, Size: 64, addr: 23500, PC: NoPC, time: 0
system.mem_ctrls::functionalAccess() Cmd: WriteReq, Size: 64, addr: 23600, PC: NoPC, time: 0
system.mem_ctrls::functionalAccess() Cmd: WriteReq, Size: 64, addr: 23700, PC: NoPC, time: 0
system.mem_ctrls::functionalAccess() Cmd: WriteReq, Size: 64, addr: 24000, PC: NoPC, time: 0
system.mem_ctrls::functionalAccess() Cmd: WriteReq, Size: 64, addr: 24100, PC: NoPC, time: 0
system.mem_ctrls::functionalAccess() Cmd: WriteReq, Size: 64, addr: 24200, PC: NoPC, time: 0
system.mem_ctrls::functionalAccess() Cmd: WriteReq, Size: 64, addr: 24300, PC: NoPC, time: 0
system.mem_ctrls::functionalAccess() Cmd: WriteReq, Size: 64, addr: 24400, PC: NoPC, time: 0
system.mem_ctrls::functionalAccess() Cmd: WriteReq, Size: 64, addr: 24500, PC: NoPC, time: 0
system.mem_ctrls::functionalAccess() Cmd: WriteReq, Size: 64, addr: 24600, PC: NoPC, time: 0
system.mem_ctrls::functionalAccess() Cmd: WriteReq, Size: 64, addr: 24700, PC: NoPC, time: 0
system.mem_ctrls::functionalAccess() Cmd: WriteReq, Size: 64, addr: 25000, PC: NoPC, time: 0
system.mem_ctrls::functionalAccess() Cmd: WriteReq, Size: 64, addr: 25100, PC: NoPC, time: 0
system.mem_ctrls::functionalAccess() Cmd: WriteReq, Size: 64, addr: 25200, PC: NoPC, time: 0
system.mem_ctrls::functionalAccess() Cmd: WriteReq, Size: 64, addr: 25300, PC: NoPC, time: 0
system.mem_ctrls::functionalAccess() Cmd: WriteReq, Size: 64, addr: 25400, PC: NoPC, time: 0
system.mem_ctrls::functionalAccess() Cmd: WriteReq, Size: 64, addr: 25500, PC: NoPC, time: 0
system.mem_ctrls::functionalAccess() Cmd: WriteReq, Size: 64, addr: 25600, PC: NoPC, time: 0
system.mem_ctrls::functionalAccess() Cmd: WriteReq, Size: 64, addr: 25700, PC: NoPC, time: 0
system.mem_ctrls::functionalAccess() Cmd: WriteReq, Size: 64, addr: 26000, PC: NoPC, time: 0
system.mem_ctrls::functionalAccess() Cmd: WriteReq, Size: 64, addr: 26100, PC: NoPC, time: 0
system.mem_ctrls::functionalAccess() Cmd: WriteReq, Size: 64, addr: 26200, PC: NoPC, time: 0
system.mem_ctrls::functionalAccess() Cmd: WriteReq, Size: 64, addr: 26300, PC: NoPC, time: 0
system.mem_ctrls::functionalAccess() Cmd: WriteReq, Size: 64, addr: 26400, PC: NoPC, time: 0
system.mem_ctrls::functionalAccess() Cmd: WriteReq, Size: 64, addr: 26500, PC: NoPC, time: 0
system.mem_ctrls::functionalAccess() Cmd: WriteReq, Size: 64, addr: 26600, PC: NoPC, time: 0
system.mem_ctrls::functionalAccess() Cmd: WriteReq, Size: 64, addr: 26700, PC: NoPC, time: 0
system.mem_ctrls::functionalAccess() Cmd: WriteReq, Size: 64, addr: 27000, PC: NoPC, time: 0
system.mem_ctrls::functionalAccess() Cmd: WriteReq, Size: 64, addr: 27100, PC: NoPC, time: 0
system.mem_ctrls::functionalAccess() Cmd: WriteReq, Size: 64, addr: 27200, PC: NoPC, time: 0
system.mem_ctrls::functionalAccess() Cmd: WriteReq, Size: 64, addr: 27300, PC: NoPC, time: 0
system.mem_ctrls::functionalAccess() Cmd: WriteReq, Size: 64, addr: 27400, PC: NoPC, time: 0
system.mem_ctrls::functionalAccess() Cmd: WriteReq, Size: 64, addr: 27500, PC: NoPC, time: 0
system.mem_ctrls::functionalAccess() Cmd: WriteReq, Size: 64, addr: 27600, PC: NoPC, time: 0
system.mem_ctrls::functionalAccess() Cmd: WriteReq, Size: 64, addr: 27700, PC: NoPC, time: 0
system.mem_ctrls::functionalAccess() Cmd: WriteReq, Size: 64, addr: 30000, PC: NoPC, time: 0
system.mem_ctrls::functionalAccess() Cmd: WriteReq, Size: 64, addr: 30100, PC: NoPC, time: 0
system.mem_ctrls::functionalAccess() Cmd: WriteReq, Size: 64, addr: 30200, PC: NoPC, time: 0
system.mem_ctrls::functionalAccess() Cmd: WriteReq, Size: 64, addr: 30300, PC: NoPC, time: 0
system.mem_ctrls::functionalAccess() Cmd: WriteReq, Size: 64, addr: 30400, PC: NoPC, time: 0
system.mem_ctrls::functionalAccess() Cmd: WriteReq, Size: 64, addr: 30500, PC: NoPC, time: 0
system.mem_ctrls::functionalAccess() Cmd: WriteReq, Size: 64, addr: 30600, PC: NoPC, time: 0
system.mem_ctrls::functionalAccess() Cmd: WriteReq, Size: 64, addr: 30700, PC: NoPC, time: 0
system.mem_ctrls::functionalAccess() Cmd: WriteReq, Size: 64, addr: 31000, PC: NoPC, time: 0
system.mem_ctrls::functionalAccess() Cmd: WriteReq, Size: 64, addr: 31100, PC: NoPC, time: 0
system.mem_ctrls::functionalAccess() Cmd: WriteReq, Size: 64, addr: 31200, PC: NoPC, time: 0
system.mem_ctrls::functionalAccess() Cmd: WriteReq, Size: 64, addr: 31300, PC: NoPC, time: 0
system.mem_ctrls::functionalAccess() Cmd: WriteReq, Size: 64, addr: 31400, PC: NoPC, time: 0
system.mem_ctrls::functionalAccess() Cmd: WriteReq, Size: 64, addr: 31500, PC: NoPC, time: 0
system.mem_ctrls::functionalAccess() Cmd: WriteReq, Size: 64, addr: 31600, PC: NoPC, time: 0
system.mem_ctrls::functionalAccess() Cmd: WriteReq, Size: 64, addr: 31700, PC: NoPC, time: 0
system.mem_ctrls::functionalAccess() Cmd: WriteReq, Size: 64, addr: 32000, PC: NoPC, time: 0
system.mem_ctrls::functionalAccess() Cmd: WriteReq, Size: 64, addr: 32100, PC: NoPC, time: 0
system.mem_ctrls::functionalAccess() Cmd: WriteReq, Size: 64, addr: 32200, PC: NoPC, time: 0
system.mem_ctrls::functionalAccess() Cmd: WriteReq, Size: 64, addr: 32300, PC: NoPC, time: 0
system.mem_ctrls::functionalAccess() Cmd: WriteReq, Size: 64, addr: 32400, PC: NoPC, time: 0
system.mem_ctrls::functionalAccess() Cmd: WriteReq, Size: 64, addr: 32500, PC: NoPC, time: 0
system.mem_ctrls::functionalAccess() Cmd: WriteReq, Size: 64, addr: 32600, PC: NoPC, time: 0
system.mem_ctrls::functionalAccess() Cmd: WriteReq, Size: 64, addr: 32700, PC: NoPC, time: 0
system.mem_ctrls::functionalAccess() Cmd: WriteReq, Size: 64, addr: 33000, PC: NoPC, time: 0
system.mem_ctrls::functionalAccess() Cmd: WriteReq, Size: 64, addr: 33100, PC: NoPC, time: 0
system.mem_ctrls::functionalAccess() Cmd: WriteReq, Size: 64, addr: 33200, PC: NoPC, time: 0
system.mem_ctrls::functionalAccess() Cmd: WriteReq, Size: 64, addr: 33300, PC: NoPC, time: 0
system.mem_ctrls::functionalAccess() Cmd: WriteReq, Size: 64, addr: 33400, PC: NoPC, time: 0
system.mem_ctrls::functionalAccess() Cmd: WriteReq, Size: 64, addr: 33500, PC: NoPC, time: 0
system.mem_ctrls::functionalAccess() Cmd: WriteReq, Size: 64, addr: 33600, PC: NoPC, time: 0
system.mem_ctrls::functionalAccess() Cmd: WriteReq, Size: 64, addr: 33700, PC: NoPC, time: 0
system.mem_ctrls::functionalAccess() Cmd: WriteReq, Size: 64, addr: 34000, PC: NoPC, time: 0
system.mem_ctrls::functionalAccess() Cmd: WriteReq, Size: 64, addr: 34100, PC: NoPC, time: 0
system.mem_ctrls::functionalAccess() Cmd: WriteReq, Size: 64, addr: 34200, PC: NoPC, time: 0
system.mem_ctrls::functionalAccess() Cmd: WriteReq, Size: 64, addr: 34300, PC: NoPC, time: 0
system.mem_ctrls::functionalAccess() Cmd: WriteReq, Size: 64, addr: 34400, PC: NoPC, time: 0
system.mem_ctrls::functionalAccess() Cmd: WriteReq, Size: 64, addr: 34500, PC: NoPC, time: 0
system.mem_ctrls::functionalAccess() Cmd: WriteReq, Size: 64, addr: 34600, PC: NoPC, time: 0
system.mem_ctrls::functionalAccess() Cmd: WriteReq, Size: 64, addr: 34700, PC: NoPC, time: 0
system.mem_ctrls::functionalAccess() Cmd: WriteReq, Size: 64, addr: 35000, PC: NoPC, time: 0
system.mem_ctrls::functionalAccess() Cmd: WriteReq, Size: 64, addr: 35100, PC: NoPC, time: 0
system.mem_ctrls::functionalAccess() Cmd: WriteReq, Size: 64, addr: 35200, PC: NoPC, time: 0
system.mem_ctrls::functionalAccess() Cmd: WriteReq, Size: 64, addr: 35300, PC: NoPC, time: 0
system.mem_ctrls::functionalAccess() Cmd: WriteReq, Size: 64, addr: 35400, PC: NoPC, time: 0
system.mem_ctrls::functionalAccess() Cmd: WriteReq, Size: 64, addr: 35500, PC: NoPC, time: 0
system.mem_ctrls::functionalAccess() Cmd: WriteReq, Size: 64, addr: 35600, PC: NoPC, time: 0
system.mem_ctrls::functionalAccess() Cmd: WriteReq, Size: 64, addr: 35700, PC: NoPC, time: 0
system.mem_ctrls::functionalAccess() Cmd: WriteReq, Size: 64, addr: 36000, PC: NoPC, time: 0
system.mem_ctrls::functionalAccess() Cmd: WriteReq, Size: 64, addr: 36100, PC: NoPC, time: 0
system.mem_ctrls::functionalAccess() Cmd: WriteReq, Size: 64, addr: 36200, PC: NoPC, time: 0
system.mem_ctrls::functionalAccess() Cmd: WriteReq, Size: 64, addr: 36300, PC: NoPC, time: 0
system.mem_ctrls::functionalAccess() Cmd: WriteReq, Size: 64, addr: 36400, PC: NoPC, time: 0
system.mem_ctrls::functionalAccess() Cmd: WriteReq, Size: 64, addr: 36500, PC: NoPC, time: 0
system.mem_ctrls::functionalAccess() Cmd: WriteReq, Size: 64, addr: 36600, PC: NoPC, time: 0
system.mem_ctrls::functionalAccess() Cmd: WriteReq, Size: 64, addr: 36700, PC: NoPC, time: 0
system.mem_ctrls::functionalAccess() Cmd: WriteReq, Size: 64, addr: 37000, PC: NoPC, time: 0
system.mem_ctrls::functionalAccess() Cmd: WriteReq, Size: 64, addr: 37100, PC: NoPC, time: 0
system.mem_ctrls::functionalAccess() Cmd: WriteReq, Size: 64, addr: 37200, PC: NoPC, time: 0
system.mem_ctrls::functionalAccess() Cmd: WriteReq, Size: 64, addr: 37300, PC: NoPC, time: 0
system.mem_ctrls::functionalAccess() Cmd: WriteReq, Size: 64, addr: 37400, PC: NoPC, time: 0
system.mem_ctrls::functionalAccess() Cmd: WriteReq, Size: 64, addr: 37500, PC: NoPC, time: 0
system.mem_ctrls::functionalAccess() Cmd: WriteReq, Size: 64, addr: 37600, PC: NoPC, time: 0
system.mem_ctrls::functionalAccess() Cmd: WriteReq, Size: 64, addr: 37700, PC: NoPC, time: 0
system.mem_ctrls::functionalAccess() Cmd: WriteReq, Size: 64, addr: 40000, PC: NoPC, time: 0
system.mem_ctrls::functionalAccess() Cmd: WriteReq, Size: 64, addr: 40100, PC: NoPC, time: 0
system.mem_ctrls::functionalAccess() Cmd: WriteReq, Size: 64, addr: 40200, PC: NoPC, time: 0
system.mem_ctrls::functionalAccess() Cmd: WriteReq, Size: 64, addr: 40300, PC: NoPC, time: 0
system.mem_ctrls::functionalAccess() Cmd: WriteReq, Size: 64, addr: 40400, PC: NoPC, time: 0
system.mem_ctrls::functionalAccess() Cmd: WriteReq, Size: 64, addr: 40500, PC: NoPC, time: 0
system.mem_ctrls::functionalAccess() Cmd: WriteReq, Size: 64, addr: 40600, PC: NoPC, time: 0
system.mem_ctrls::functionalAccess() Cmd: WriteReq, Size: 64, addr: 40700, PC: NoPC, time: 0
system.mem_ctrls::functionalAccess() Cmd: WriteReq, Size: 64, addr: 41000, PC: NoPC, time: 0
system.mem_ctrls::functionalAccess() Cmd: WriteReq, Size: 64, addr: 41100, PC: NoPC, time: 0
system.mem_ctrls::functionalAccess() Cmd: WriteReq, Size: 64, addr: 41200, PC: NoPC, time: 0
system.mem_ctrls::functionalAccess() Cmd: WriteReq, Size: 64, addr: 41300, PC: NoPC, time: 0
system.mem_ctrls::functionalAccess() Cmd: WriteReq, Size: 64, addr: 41400, PC: NoPC, time: 0
system.mem_ctrls::functionalAccess() Cmd: WriteReq, Size: 64, addr: 41500, PC: NoPC, time: 0
system.mem_ctrls::functionalAccess() Cmd: WriteReq, Size: 64, addr: 41600, PC: NoPC, time: 0
system.mem_ctrls::functionalAccess() Cmd: WriteReq, Size: 64, addr: 41700, PC: NoPC, time: 0
system.mem_ctrls::functionalAccess() Cmd: WriteReq, Size: 64, addr: 42000, PC: NoPC, time: 0
system.mem_ctrls::functionalAccess() Cmd: WriteReq, Size: 64, addr: 42100, PC: NoPC, time: 0
system.mem_ctrls::functionalAccess() Cmd: WriteReq, Size: 64, addr: 42200, PC: NoPC, time: 0
system.mem_ctrls::functionalAccess() Cmd: WriteReq, Size: 64, addr: 42300, PC: NoPC, time: 0
system.mem_ctrls::functionalAccess() Cmd: WriteReq, Size: 64, addr: 42400, PC: NoPC, time: 0
system.mem_ctrls::functionalAccess() Cmd: WriteReq, Size: 64, addr: 42500, PC: NoPC, time: 0
system.mem_ctrls::functionalAccess() Cmd: WriteReq, Size: 64, addr: 42600, PC: NoPC, time: 0
system.mem_ctrls::functionalAccess() Cmd: WriteReq, Size: 64, addr: 42700, PC: NoPC, time: 0
system.mem_ctrls::functionalAccess() Cmd: WriteReq, Size: 64, addr: 43000, PC: NoPC, time: 0
system.mem_ctrls::functionalAccess() Cmd: WriteReq, Size: 64, addr: 43100, PC: NoPC, time: 0
system.mem_ctrls::functionalAccess() Cmd: WriteReq, Size: 64, addr: 43200, PC: NoPC, time: 0
system.mem_ctrls::functionalAccess() Cmd: WriteReq, Size: 64, addr: 43300, PC: NoPC, time: 0
system.mem_ctrls::functionalAccess() Cmd: WriteReq, Size: 64, addr: 43400, PC: NoPC, time: 0
system.mem_ctrls::functionalAccess() Cmd: WriteReq, Size: 64, addr: 43500, PC: NoPC, time: 0
system.mem_ctrls::functionalAccess() Cmd: WriteReq, Size: 64, addr: 43600, PC: NoPC, time: 0
system.mem_ctrls::functionalAccess() Cmd: WriteReq, Size: 64, addr: 43700, PC: NoPC, time: 0
system.mem_ctrls::functionalAccess() Cmd: WriteReq, Size: 64, addr: 44000, PC: NoPC, time: 0
system.mem_ctrls::functionalAccess() Cmd: WriteReq, Size: 64, addr: 44100, PC: NoPC, time: 0
system.mem_ctrls::functionalAccess() Cmd: WriteReq, Size: 64, addr: 44200, PC: NoPC, time: 0
system.mem_ctrls::functionalAccess() Cmd: WriteReq, Size: 64, addr: 44300, PC: NoPC, time: 0
system.mem_ctrls::functionalAccess() Cmd: WriteReq, Size: 64, addr: 44400, PC: NoPC, time: 0
system.mem_ctrls::functionalAccess() Cmd: WriteReq, Size: 64, addr: 44500, PC: NoPC, time: 0
system.mem_ctrls::functionalAccess() Cmd: WriteReq, Size: 64, addr: 44600, PC: NoPC, time: 0
system.mem_ctrls::functionalAccess() Cmd: WriteReq, Size: 64, addr: 44700, PC: NoPC, time: 0
system.mem_ctrls::functionalAccess() Cmd: WriteReq, Size: 64, addr: 45000, PC: NoPC, time: 0
system.mem_ctrls::functionalAccess() Cmd: WriteReq, Size: 64, addr: 45100, PC: NoPC, time: 0
system.mem_ctrls::functionalAccess() Cmd: WriteReq, Size: 64, addr: 45200, PC: NoPC, time: 0
system.mem_ctrls::functionalAccess() Cmd: WriteReq, Size: 64, addr: 45300, PC: NoPC, time: 0
system.mem_ctrls::functionalAccess() Cmd: WriteReq, Size: 64, addr: 45400, PC: NoPC, time: 0
system.mem_ctrls::functionalAccess() Cmd: WriteReq, Size: 64, addr: 45500, PC: NoPC, time: 0
system.mem_ctrls::functionalAccess() Cmd: WriteReq, Size: 64, addr: 45600, PC: NoPC, time: 0
system.mem_ctrls::functionalAccess() Cmd: WriteReq, Size: 64, addr: 45700, PC: NoPC, time: 0
system.mem_ctrls::functionalAccess() Cmd: WriteReq, Size: 64, addr: 46000, PC: NoPC, time: 0
system.mem_ctrls::functionalAccess() Cmd: WriteReq, Size: 64, addr: 46100, PC: NoPC, time: 0
system.mem_ctrls::functionalAccess() Cmd: WriteReq, Size: 64, addr: 46200, PC: NoPC, time: 0
system.mem_ctrls::functionalAccess() Cmd: WriteReq, Size: 64, addr: 46300, PC: NoPC, time: 0
system.mem_ctrls::functionalAccess() Cmd: WriteReq, Size: 64, addr: 46400, PC: NoPC, time: 0
system.mem_ctrls::functionalAccess() Cmd: WriteReq, Size: 64, addr: 46500, PC: NoPC, time: 0
system.mem_ctrls::functionalAccess() Cmd: WriteReq, Size: 64, addr: 46600, PC: NoPC, time: 0
system.mem_ctrls::functionalAccess() Cmd: WriteReq, Size: 64, addr: 46700, PC: NoPC, time: 0
system.mem_ctrls::functionalAccess() Cmd: WriteReq, Size: 64, addr: 47000, PC: NoPC, time: 0
system.mem_ctrls::functionalAccess() Cmd: WriteReq, Size: 64, addr: 47100, PC: NoPC, time: 0
system.mem_ctrls::functionalAccess() Cmd: WriteReq, Size: 64, addr: 47200, PC: NoPC, time: 0
system.mem_ctrls::functionalAccess() Cmd: WriteReq, Size: 64, addr: 47300, PC: NoPC, time: 0
system.mem_ctrls::functionalAccess() Cmd: WriteReq, Size: 64, addr: 47400, PC: NoPC, time: 0
system.mem_ctrls::functionalAccess() Cmd: WriteReq, Size: 64, addr: 47500, PC: NoPC, time: 0
system.mem_ctrls::functionalAccess() Cmd: WriteReq, Size: 64, addr: 47600, PC: NoPC, time: 0
system.mem_ctrls::functionalAccess() Cmd: WriteReq, Size: 64, addr: 47700, PC: NoPC, time: 0
system.mem_ctrls::functionalAccess() Cmd: WriteReq, Size: 64, addr: 50000, PC: NoPC, time: 0
system.mem_ctrls::functionalAccess() Cmd: WriteReq, Size: 64, addr: 50100, PC: NoPC, time: 0
system.mem_ctrls::functionalAccess() Cmd: WriteReq, Size: 64, addr: 50200, PC: NoPC, time: 0
system.mem_ctrls::functionalAccess() Cmd: WriteReq, Size: 64, addr: 50300, PC: NoPC, time: 0
system.mem_ctrls::functionalAccess() Cmd: WriteReq, Size: 64, addr: 50400, PC: NoPC, time: 0
system.mem_ctrls::functionalAccess() Cmd: WriteReq, Size: 64, addr: 50500, PC: NoPC, time: 0
system.mem_ctrls::functionalAccess() Cmd: WriteReq, Size: 64, addr: 50600, PC: NoPC, time: 0
system.mem_ctrls::functionalAccess() Cmd: WriteReq, Size: 64, addr: 50700, PC: NoPC, time: 0
system.mem_ctrls::functionalAccess() Cmd: WriteReq, Size: 64, addr: 51000, PC: NoPC, time: 0
system.mem_ctrls::functionalAccess() Cmd: WriteReq, Size: 64, addr: 51100, PC: NoPC, time: 0
system.mem_ctrls::functionalAccess() Cmd: WriteReq, Size: 64, addr: 51200, PC: NoPC, time: 0
system.mem_ctrls::functionalAccess() Cmd: WriteReq, Size: 64, addr: 51300, PC: NoPC, time: 0
system.mem_ctrls::functionalAccess() Cmd: WriteReq, Size: 64, addr: 51400, PC: NoPC, time: 0
system.mem_ctrls::functionalAccess() Cmd: WriteReq, Size: 64, addr: 51500, PC: NoPC, time: 0
system.mem_ctrls::functionalAccess() Cmd: WriteReq, Size: 64, addr: 51600, PC: NoPC, time: 0
system.mem_ctrls::functionalAccess() Cmd: WriteReq, Size: 64, addr: 51700, PC: NoPC, time: 0
system.mem_ctrls::functionalAccess() Cmd: WriteReq, Size: 64, addr: 52000, PC: NoPC, time: 0
system.mem_ctrls::functionalAccess() Cmd: WriteReq, Size: 64, addr: 52100, PC: NoPC, time: 0
system.mem_ctrls::functionalAccess() Cmd: WriteReq, Size: 64, addr: 52200, PC: NoPC, time: 0
system.mem_ctrls::functionalAccess() Cmd: WriteReq, Size: 64, addr: 52300, PC: NoPC, time: 0
system.mem_ctrls::functionalAccess() Cmd: WriteReq, Size: 64, addr: 52400, PC: NoPC, time: 0
system.mem_ctrls::functionalAccess() Cmd: WriteReq, Size: 64, addr: 52500, PC: NoPC, time: 0
system.mem_ctrls::functionalAccess() Cmd: WriteReq, Size: 64, addr: 52600, PC: NoPC, time: 0
system.mem_ctrls::functionalAccess() Cmd: WriteReq, Size: 64, addr: 52700, PC: NoPC, time: 0
system.mem_ctrls::functionalAccess() Cmd: WriteReq, Size: 64, addr: 53000, PC: NoPC, time: 0
system.mem_ctrls::functionalAccess() Cmd: WriteReq, Size: 64, addr: 53100, PC: NoPC, time: 0
system.mem_ctrls::functionalAccess() Cmd: WriteReq, Size: 64, addr: 53200, PC: NoPC, time: 0
system.mem_ctrls::functionalAccess() Cmd: WriteReq, Size: 64, addr: 53300, PC: NoPC, time: 0
system.mem_ctrls::functionalAccess() Cmd: WriteReq, Size: 64, addr: 53400, PC: NoPC, time: 0
system.mem_ctrls::functionalAccess() Cmd: WriteReq, Size: 64, addr: 53500, PC: NoPC, time: 0
system.mem_ctrls::functionalAccess() Cmd: WriteReq, Size: 64, addr: 53600, PC: NoPC, time: 0
system.mem_ctrls::functionalAccess() Cmd: WriteReq, Size: 64, addr: 53700, PC: NoPC, time: 0
system.mem_ctrls::functionalAccess() Cmd: WriteReq, Size: 64, addr: 54000, PC: NoPC, time: 0
system.mem_ctrls::functionalAccess() Cmd: WriteReq, Size: 64, addr: 54100, PC: NoPC, time: 0
system.mem_ctrls::functionalAccess() Cmd: WriteReq, Size: 64, addr: 54200, PC: NoPC, time: 0
system.mem_ctrls::functionalAccess() Cmd: WriteReq, Size: 64, addr: 54300, PC: NoPC, time: 0
system.mem_ctrls::functionalAccess() Cmd: WriteReq, Size: 64, addr: 54400, PC: NoPC, time: 0
system.mem_ctrls::functionalAccess() Cmd: WriteReq, Size: 64, addr: 54500, PC: NoPC, time: 0
system.mem_ctrls::functionalAccess() Cmd: WriteReq, Size: 64, addr: 54600, PC: NoPC, time: 0
system.mem_ctrls::functionalAccess() Cmd: WriteReq, Size: 64, addr: 54700, PC: NoPC, time: 0
system.mem_ctrls::functionalAccess() Cmd: WriteReq, Size: 64, addr: 55000, PC: NoPC, time: 0
system.mem_ctrls::functionalAccess() Cmd: WriteReq, Size: 64, addr: 55100, PC: NoPC, time: 0
system.mem_ctrls::functionalAccess() Cmd: WriteReq, Size: 64, addr: 55200, PC: NoPC, time: 0
system.mem_ctrls::functionalAccess() Cmd: WriteReq, Size: 64, addr: 55300, PC: NoPC, time: 0
system.mem_ctrls::functionalAccess() Cmd: WriteReq, Size: 64, addr: 55400, PC: NoPC, time: 0
system.mem_ctrls::functionalAccess() Cmd: WriteReq, Size: 64, addr: 55500, PC: NoPC, time: 0
system.mem_ctrls::functionalAccess() Cmd: WriteReq, Size: 64, addr: 55600, PC: NoPC, time: 0
system.mem_ctrls::functionalAccess() Cmd: WriteReq, Size: 64, addr: 55700, PC: NoPC, time: 0
system.mem_ctrls::functionalAccess() Cmd: WriteReq, Size: 64, addr: 56000, PC: NoPC, time: 0
system.mem_ctrls::functionalAccess() Cmd: WriteReq, Size: 64, addr: 56100, PC: NoPC, time: 0
system.mem_ctrls::functionalAccess() Cmd: WriteReq, Size: 64, addr: 56200, PC: NoPC, time: 0
system.mem_ctrls::functionalAccess() Cmd: WriteReq, Size: 64, addr: 56300, PC: NoPC, time: 0
system.mem_ctrls::functionalAccess() Cmd: WriteReq, Size: 64, addr: 56400, PC: NoPC, time: 0
system.mem_ctrls::functionalAccess() Cmd: WriteReq, Size: 64, addr: 56500, PC: NoPC, time: 0
system.mem_ctrls::functionalAccess() Cmd: WriteReq, Size: 64, addr: 56600, PC: NoPC, time: 0
system.mem_ctrls::functionalAccess() Cmd: WriteReq, Size: 64, addr: 56700, PC: NoPC, time: 0
system.mem_ctrls::functionalAccess() Cmd: WriteReq, Size: 64, addr: 57000, PC: NoPC, time: 0
system.mem_ctrls::functionalAccess() Cmd: WriteReq, Size: 64, addr: 57100, PC: NoPC, time: 0
system.mem_ctrls::functionalAccess() Cmd: WriteReq, Size: 64, addr: 57200, PC: NoPC, time: 0
system.mem_ctrls::functionalAccess() Cmd: WriteReq, Size: 64, addr: 57300, PC: NoPC, time: 0
system.mem_ctrls::functionalAccess() Cmd: WriteReq, Size: 64, addr: 57400, PC: NoPC, time: 0
system.mem_ctrls::functionalAccess() Cmd: WriteReq, Size: 64, addr: 57500, PC: NoPC, time: 0
system.mem_ctrls::functionalAccess() Cmd: WriteReq, Size: 64, addr: 57600, PC: NoPC, time: 0
system.mem_ctrls::functionalAccess() Cmd: WriteReq, Size: 64, addr: 57700, PC: NoPC, time: 0
system.mem_ctrls::functionalAccess() Cmd: WriteReq, Size: 64, addr: 60000, PC: NoPC, time: 0
system.mem_ctrls::functionalAccess() Cmd: WriteReq, Size: 64, addr: 60100, PC: NoPC, time: 0
system.mem_ctrls::functionalAccess() Cmd: WriteReq, Size: 64, addr: 60200, PC: NoPC, time: 0
system.mem_ctrls::functionalAccess() Cmd: WriteReq, Size: 64, addr: 60300, PC: NoPC, time: 0
system.mem_ctrls::functionalAccess() Cmd: WriteReq, Size: 64, addr: 60400, PC: NoPC, time: 0
system.mem_ctrls::functionalAccess() Cmd: WriteReq, Size: 64, addr: 60500, PC: NoPC, time: 0
system.mem_ctrls::functionalAccess() Cmd: WriteReq, Size: 64, addr: 60600, PC: NoPC, time: 0
system.mem_ctrls::functionalAccess() Cmd: WriteReq, Size: 64, addr: 60700, PC: NoPC, time: 0
system.mem_ctrls::functionalAccess() Cmd: WriteReq, Size: 64, addr: 61000, PC: NoPC, time: 0
system.mem_ctrls::functionalAccess() Cmd: WriteReq, Size: 64, addr: 61100, PC: NoPC, time: 0
system.mem_ctrls::functionalAccess() Cmd: WriteReq, Size: 64, addr: 61200, PC: NoPC, time: 0
system.mem_ctrls::functionalAccess() Cmd: WriteReq, Size: 64, addr: 61300, PC: NoPC, time: 0
system.mem_ctrls::functionalAccess() Cmd: WriteReq, Size: 64, addr: 61400, PC: NoPC, time: 0
system.mem_ctrls::functionalAccess() Cmd: WriteReq, Size: 64, addr: 61500, PC: NoPC, time: 0
system.mem_ctrls::functionalAccess() Cmd: WriteReq, Size: 64, addr: 61600, PC: NoPC, time: 0
system.mem_ctrls::functionalAccess() Cmd: WriteReq, Size: 64, addr: 61700, PC: NoPC, time: 0
system.mem_ctrls::functionalAccess() Cmd: WriteReq, Size: 64, addr: 62000, PC: NoPC, time: 0
system.mem_ctrls::functionalAccess() Cmd: WriteReq, Size: 64, addr: 62100, PC: NoPC, time: 0
system.mem_ctrls::functionalAccess() Cmd: WriteReq, Size: 64, addr: 62200, PC: NoPC, time: 0
system.mem_ctrls::functionalAccess() Cmd: WriteReq, Size: 64, addr: 62300, PC: NoPC, time: 0
system.mem_ctrls::functionalAccess() Cmd: WriteReq, Size: 64, addr: 62400, PC: NoPC, time: 0
system.mem_ctrls::functionalAccess() Cmd: WriteReq, Size: 64, addr: 62500, PC: NoPC, time: 0
system.mem_ctrls::functionalAccess() Cmd: WriteReq, Size: 64, addr: 62600, PC: NoPC, time: 0
system.mem_ctrls::functionalAccess() Cmd: WriteReq, Size: 64, addr: 62700, PC: NoPC, time: 0
system.mem_ctrls::functionalAccess() Cmd: WriteReq, Size: 64, addr: 63000, PC: NoPC, time: 0
system.mem_ctrls::functionalAccess() Cmd: WriteReq, Size: 64, addr: 63100, PC: NoPC, time: 0
system.mem_ctrls::functionalAccess() Cmd: WriteReq, Size: 64, addr: 63200, PC: NoPC, time: 0
system.mem_ctrls::functionalAccess() Cmd: WriteReq, Size: 64, addr: 63300, PC: NoPC, time: 0
system.mem_ctrls::functionalAccess() Cmd: WriteReq, Size: 64, addr: 63400, PC: NoPC, time: 0
system.mem_ctrls::functionalAccess() Cmd: WriteReq, Size: 64, addr: 63500, PC: NoPC, time: 0
system.mem_ctrls::functionalAccess() Cmd: WriteReq, Size: 64, addr: 63600, PC: NoPC, time: 0
system.mem_ctrls::functionalAccess() Cmd: WriteReq, Size: 64, addr: 63700, PC: NoPC, time: 0
system.mem_ctrls::functionalAccess() Cmd: WriteReq, Size: 64, addr: 64000, PC: NoPC, time: 0
system.mem_ctrls::functionalAccess() Cmd: WriteReq, Size: 64, addr: 64100, PC: NoPC, time: 0
system.mem_ctrls::functionalAccess() Cmd: WriteReq, Size: 64, addr: 64200, PC: NoPC, time: 0
system.mem_ctrls::functionalAccess() Cmd: WriteReq, Size: 64, addr: 64300, PC: NoPC, time: 0
system.mem_ctrls::functionalAccess() Cmd: WriteReq, Size: 64, addr: 64400, PC: NoPC, time: 0
system.mem_ctrls::functionalAccess() Cmd: WriteReq, Size: 64, addr: 64500, PC: NoPC, time: 0
system.mem_ctrls::functionalAccess() Cmd: WriteReq, Size: 64, addr: 64600, PC: NoPC, time: 0
system.mem_ctrls::functionalAccess() Cmd: WriteReq, Size: 64, addr: 64700, PC: NoPC, time: 0
system.mem_ctrls::functionalAccess() Cmd: WriteReq, Size: 64, addr: 65000, PC: NoPC, time: 0
system.mem_ctrls::functionalAccess() Cmd: WriteReq, Size: 64, addr: 65100, PC: NoPC, time: 0
system.mem_ctrls::functionalAccess() Cmd: WriteReq, Size: 64, addr: 65200, PC: NoPC, time: 0
system.mem_ctrls::functionalAccess() Cmd: WriteReq, Size: 64, addr: 65300, PC: NoPC, time: 0
system.mem_ctrls::functionalAccess() Cmd: WriteReq, Size: 64, addr: 65400, PC: NoPC, time: 0
system.mem_ctrls::functionalAccess() Cmd: WriteReq, Size: 64, addr: 65500, PC: NoPC, time: 0
system.mem_ctrls::functionalAccess() Cmd: WriteReq, Size: 64, addr: 65600, PC: NoPC, time: 0
system.mem_ctrls::functionalAccess() Cmd: WriteReq, Size: 64, addr: 65700, PC: NoPC, time: 0
system.mem_ctrls::functionalAccess() Cmd: WriteReq, Size: 64, addr: 66000, PC: NoPC, time: 0
system.mem_ctrls::functionalAccess() Cmd: WriteReq, Size: 64, addr: 66100, PC: NoPC, time: 0
system.mem_ctrls::functionalAccess() Cmd: WriteReq, Size: 64, addr: 66200, PC: NoPC, time: 0
system.mem_ctrls::functionalAccess() Cmd: WriteReq, Size: 64, addr: 66300, PC: NoPC, time: 0
system.mem_ctrls::functionalAccess() Cmd: WriteReq, Size: 64, addr: 66400, PC: NoPC, time: 0
system.mem_ctrls::functionalAccess() Cmd: WriteReq, Size: 64, addr: 66500, PC: NoPC, time: 0
system.mem_ctrls::functionalAccess() Cmd: WriteReq, Size: 64, addr: 66600, PC: NoPC, time: 0
system.mem_ctrls::functionalAccess() Cmd: WriteReq, Size: 64, addr: 66700, PC: NoPC, time: 0
system.mem_ctrls::functionalAccess() Cmd: WriteReq, Size: 64, addr: 67000, PC: NoPC, time: 0
system.mem_ctrls::functionalAccess() Cmd: WriteReq, Size: 64, addr: 67100, PC: NoPC, time: 0
system.mem_ctrls::functionalAccess() Cmd: WriteReq, Size: 64, addr: 67200, PC: NoPC, time: 0
system.mem_ctrls::functionalAccess() Cmd: WriteReq, Size: 64, addr: 67300, PC: NoPC, time: 0
system.mem_ctrls::functionalAccess() Cmd: WriteReq, Size: 64, addr: 67400, PC: NoPC, time: 0
system.mem_ctrls::functionalAccess() Cmd: WriteReq, Size: 64, addr: 67500, PC: NoPC, time: 0
system.mem_ctrls::functionalAccess() Cmd: WriteReq, Size: 64, addr: 67600, PC: NoPC, time: 0
system.mem_ctrls::functionalAccess() Cmd: WriteReq, Size: 64, addr: 67700, PC: NoPC, time: 0
system.mem_ctrls::functionalAccess() Cmd: WriteReq, Size: 64, addr: 70000, PC: NoPC, time: 0
system.mem_ctrls::functionalAccess() Cmd: WriteReq, Size: 64, addr: 70100, PC: NoPC, time: 0
system.mem_ctrls::functionalAccess() Cmd: WriteReq, Size: 64, addr: 70200, PC: NoPC, time: 0
system.mem_ctrls::functionalAccess() Cmd: WriteReq, Size: 64, addr: 70300, PC: NoPC, time: 0
system.mem_ctrls::functionalAccess() Cmd: WriteReq, Size: 64, addr: 70400, PC: NoPC, time: 0
system.mem_ctrls::functionalAccess() Cmd: WriteReq, Size: 64, addr: 70500, PC: NoPC, time: 0
system.mem_ctrls::functionalAccess() Cmd: WriteReq, Size: 64, addr: 70600, PC: NoPC, time: 0
system.mem_ctrls::functionalAccess() Cmd: WriteReq, Size: 64, addr: 70700, PC: NoPC, time: 0
system.mem_ctrls::functionalAccess() Cmd: WriteReq, Size: 64, addr: 71000, PC: NoPC, time: 0
system.mem_ctrls::functionalAccess() Cmd: WriteReq, Size: 64, addr: 71100, PC: NoPC, time: 0
system.mem_ctrls::functionalAccess() Cmd: WriteReq, Size: 64, addr: 71200, PC: NoPC, time: 0
system.mem_ctrls::functionalAccess() Cmd: WriteReq, Size: 64, addr: 71300, PC: NoPC, time: 0
system.mem_ctrls::functionalAccess() Cmd: WriteReq, Size: 64, addr: 71400, PC: NoPC, time: 0
system.mem_ctrls::functionalAccess() Cmd: WriteReq, Size: 64, addr: 71500, PC: NoPC, time: 0
system.mem_ctrls::functionalAccess() Cmd: WriteReq, Size: 64, addr: 71600, PC: NoPC, time: 0
system.mem_ctrls::functionalAccess() Cmd: WriteReq, Size: 64, addr: 71700, PC: NoPC, time: 0
system.mem_ctrls::functionalAccess() Cmd: WriteReq, Size: 64, addr: 72000, PC: NoPC, time: 0
system.mem_ctrls::functionalAccess() Cmd: WriteReq, Size: 64, addr: 72100, PC: NoPC, time: 0
system.mem_ctrls::functionalAccess() Cmd: WriteReq, Size: 64, addr: 72200, PC: NoPC, time: 0
system.mem_ctrls::functionalAccess() Cmd: WriteReq, Size: 64, addr: 72300, PC: NoPC, time: 0
system.mem_ctrls::functionalAccess() Cmd: WriteReq, Size: 64, addr: 72400, PC: NoPC, time: 0
system.mem_ctrls::functionalAccess() Cmd: WriteReq, Size: 64, addr: 72500, PC: NoPC, time: 0
system.mem_ctrls::functionalAccess() Cmd: WriteReq, Size: 64, addr: 72600, PC: NoPC, time: 0
system.mem_ctrls::functionalAccess() Cmd: WriteReq, Size: 64, addr: 72700, PC: NoPC, time: 0
system.mem_ctrls::functionalAccess() Cmd: WriteReq, Size: 64, addr: 73000, PC: NoPC, time: 0
system.mem_ctrls::functionalAccess() Cmd: WriteReq, Size: 64, addr: 73100, PC: NoPC, time: 0
system.mem_ctrls::functionalAccess() Cmd: WriteReq, Size: 64, addr: 73200, PC: NoPC, time: 0
system.mem_ctrls::functionalAccess() Cmd: WriteReq, Size: 64, addr: 73300, PC: NoPC, time: 0
system.mem_ctrls::functionalAccess() Cmd: WriteReq, Size: 64, addr: 73400, PC: NoPC, time: 0
system.mem_ctrls::functionalAccess() Cmd: WriteReq, Size: 64, addr: 73500, PC: NoPC, time: 0
system.mem_ctrls::functionalAccess() Cmd: WriteReq, Size: 64, addr: 73600, PC: NoPC, time: 0
system.mem_ctrls::functionalAccess() Cmd: WriteReq, Size: 64, addr: 73700, PC: NoPC, time: 0
system.mem_ctrls::functionalAccess() Cmd: WriteReq, Size: 64, addr: 74000, PC: NoPC, time: 0
system.mem_ctrls::functionalAccess() Cmd: WriteReq, Size: 64, addr: 74100, PC: NoPC, time: 0
system.mem_ctrls::functionalAccess() Cmd: WriteReq, Size: 64, addr: 74200, PC: NoPC, time: 0
system.mem_ctrls::functionalAccess() Cmd: WriteReq, Size: 64, addr: 74300, PC: NoPC, time: 0
system.mem_ctrls::functionalAccess() Cmd: WriteReq, Size: 64, addr: 74400, PC: NoPC, time: 0
system.mem_ctrls::functionalAccess() Cmd: WriteReq, Size: 64, addr: 74500, PC: NoPC, time: 0
system.mem_ctrls::functionalAccess() Cmd: WriteReq, Size: 64, addr: 74600, PC: NoPC, time: 0
system.mem_ctrls::functionalAccess() Cmd: WriteReq, Size: 64, addr: 74700, PC: NoPC, time: 0
system.mem_ctrls::functionalAccess() Cmd: WriteReq, Size: 64, addr: 75000, PC: NoPC, time: 0
system.mem_ctrls::functionalAccess() Cmd: WriteReq, Size: 64, addr: 75100, PC: NoPC, time: 0
system.mem_ctrls::functionalAccess() Cmd: WriteReq, Size: 64, addr: 75200, PC: NoPC, time: 0
system.mem_ctrls::functionalAccess() Cmd: WriteReq, Size: 64, addr: 75300, PC: NoPC, time: 0
system.mem_ctrls::functionalAccess() Cmd: WriteReq, Size: 64, addr: 75400, PC: NoPC, time: 0
system.mem_ctrls::functionalAccess() Cmd: WriteReq, Size: 64, addr: 75500, PC: NoPC, time: 0
system.mem_ctrls::functionalAccess() Cmd: WriteReq, Size: 64, addr: 75600, PC: NoPC, time: 0
system.mem_ctrls::functionalAccess() Cmd: WriteReq, Size: 64, addr: 75700, PC: NoPC, time: 0
system.mem_ctrls::functionalAccess() Cmd: WriteReq, Size: 64, addr: 76000, PC: NoPC, time: 0
system.mem_ctrls::functionalAccess() Cmd: WriteReq, Size: 64, addr: 76100, PC: NoPC, time: 0
system.mem_ctrls::functionalAccess() Cmd: WriteReq, Size: 64, addr: 76200, PC: NoPC, time: 0
system.mem_ctrls::functionalAccess() Cmd: WriteReq, Size: 64, addr: 76300, PC: NoPC, time: 0
system.mem_ctrls::functionalAccess() Cmd: WriteReq, Size: 64, addr: 76400, PC: NoPC, time: 0
system.mem_ctrls::functionalAccess() Cmd: WriteReq, Size: 64, addr: 76500, PC: NoPC, time: 0
system.mem_ctrls::functionalAccess() Cmd: WriteReq, Size: 64, addr: 76600, PC: NoPC, time: 0
system.mem_ctrls::functionalAccess() Cmd: WriteReq, Size: 64, addr: 76700, PC: NoPC, time: 0
system.mem_ctrls::functionalAccess() Cmd: WriteReq, Size: 64, addr: 77000, PC: NoPC, time: 0
system.mem_ctrls::functionalAccess() Cmd: WriteReq, Size: 64, addr: 77100, PC: NoPC, time: 0
system.mem_ctrls::functionalAccess() Cmd: WriteReq, Size: 64, addr: 77200, PC: NoPC, time: 0
system.mem_ctrls::functionalAccess() Cmd: WriteReq, Size: 64, addr: 77300, PC: NoPC, time: 0
system.mem_ctrls::functionalAccess() Cmd: WriteReq, Size: 64, addr: 77400, PC: NoPC, time: 0
system.mem_ctrls::functionalAccess() Cmd: WriteReq, Size: 64, addr: 77500, PC: NoPC, time: 0
system.mem_ctrls::functionalAccess() Cmd: WriteReq, Size: 64, addr: 77600, PC: NoPC, time: 0
system.mem_ctrls::functionalAccess() Cmd: WriteReq, Size: 64, addr: 77700, PC: NoPC, time: 0
system.mem_ctrls::functionalAccess() Cmd: WriteReq, Size: 64, addr: 100000, PC: NoPC, time: 0
system.mem_ctrls::functionalAccess() Cmd: WriteReq, Size: 64, addr: 100100, PC: NoPC, time: 0
system.mem_ctrls::functionalAccess() Cmd: WriteReq, Size: 64, addr: 100200, PC: NoPC, time: 0
system.mem_ctrls::functionalAccess() Cmd: WriteReq, Size: 64, addr: 100300, PC: NoPC, time: 0
system.mem_ctrls::functionalAccess() Cmd: WriteReq, Size: 64, addr: 100400, PC: NoPC, time: 0
system.mem_ctrls::functionalAccess() Cmd: WriteReq, Size: 64, addr: 100500, PC: NoPC, time: 0
system.mem_ctrls::functionalAccess() Cmd: WriteReq, Size: 64, addr: 100600, PC: NoPC, time: 0
system.mem_ctrls::functionalAccess() Cmd: WriteReq, Size: 64, addr: 100700, PC: NoPC, time: 0
system.mem_ctrls::functionalAccess() Cmd: WriteReq, Size: 64, addr: 101000, PC: NoPC, time: 0
system.mem_ctrls::functionalAccess() Cmd: WriteReq, Size: 64, addr: 101100, PC: NoPC, time: 0
system.mem_ctrls::functionalAccess() Cmd: WriteReq, Size: 64, addr: 101200, PC: NoPC, time: 0
system.mem_ctrls::functionalAccess() Cmd: WriteReq, Size: 64, addr: 101300, PC: NoPC, time: 0
system.mem_ctrls::functionalAccess() Cmd: WriteReq, Size: 64, addr: 101400, PC: NoPC, time: 0
system.mem_ctrls::functionalAccess() Cmd: WriteReq, Size: 64, addr: 101500, PC: NoPC, time: 0
system.mem_ctrls::functionalAccess() Cmd: WriteReq, Size: 64, addr: 101600, PC: NoPC, time: 0
system.mem_ctrls::functionalAccess() Cmd: WriteReq, Size: 64, addr: 101700, PC: NoPC, time: 0
system.mem_ctrls::functionalAccess() Cmd: WriteReq, Size: 64, addr: 102000, PC: NoPC, time: 0
system.mem_ctrls::functionalAccess() Cmd: WriteReq, Size: 64, addr: 102100, PC: NoPC, time: 0
system.mem_ctrls::functionalAccess() Cmd: WriteReq, Size: 64, addr: 102200, PC: NoPC, time: 0
system.mem_ctrls::functionalAccess() Cmd: WriteReq, Size: 64, addr: 102300, PC: NoPC, time: 0
system.mem_ctrls::functionalAccess() Cmd: WriteReq, Size: 64, addr: 102400, PC: NoPC, time: 0
system.mem_ctrls::functionalAccess() Cmd: WriteReq, Size: 64, addr: 102500, PC: NoPC, time: 0
system.mem_ctrls::functionalAccess() Cmd: WriteReq, Size: 64, addr: 102600, PC: NoPC, time: 0
system.mem_ctrls::functionalAccess() Cmd: WriteReq, Size: 64, addr: 102700, PC: NoPC, time: 0
system.mem_ctrls::functionalAccess() Cmd: WriteReq, Size: 64, addr: 103000, PC: NoPC, time: 0
system.mem_ctrls::functionalAccess() Cmd: WriteReq, Size: 64, addr: 103100, PC: NoPC, time: 0
system.mem_ctrls::functionalAccess() Cmd: WriteReq, Size: 64, addr: 103200, PC: NoPC, time: 0
system.mem_ctrls::functionalAccess() Cmd: WriteReq, Size: 64, addr: 103300, PC: NoPC, time: 0
system.mem_ctrls::functionalAccess() Cmd: WriteReq, Size: 64, addr: 103400, PC: NoPC, time: 0
system.mem_ctrls::functionalAccess() Cmd: WriteReq, Size: 64, addr: 103500, PC: NoPC, time: 0
system.mem_ctrls::functionalAccess() Cmd: WriteReq, Size: 64, addr: 103600, PC: NoPC, time: 0
system.mem_ctrls::functionalAccess() Cmd: WriteReq, Size: 64, addr: 103700, PC: NoPC, time: 0
system.mem_ctrls::functionalAccess() Cmd: WriteReq, Size: 64, addr: 104000, PC: NoPC, time: 0
system.mem_ctrls::functionalAccess() Cmd: WriteReq, Size: 64, addr: 104100, PC: NoPC, time: 0
system.mem_ctrls::functionalAccess() Cmd: WriteReq, Size: 64, addr: 104200, PC: NoPC, time: 0
system.mem_ctrls::functionalAccess() Cmd: WriteReq, Size: 64, addr: 104300, PC: NoPC, time: 0
system.mem_ctrls::functionalAccess() Cmd: WriteReq, Size: 64, addr: 104400, PC: NoPC, time: 0
system.mem_ctrls::functionalAccess() Cmd: WriteReq, Size: 64, addr: 104500, PC: NoPC, time: 0
system.mem_ctrls::functionalAccess() Cmd: WriteReq, Size: 64, addr: 104600, PC: NoPC, time: 0
system.mem_ctrls::functionalAccess() Cmd: WriteReq, Size: 64, addr: 104700, PC: NoPC, time: 0
system.mem_ctrls::functionalAccess() Cmd: WriteReq, Size: 64, addr: 105000, PC: NoPC, time: 0
system.mem_ctrls::functionalAccess() Cmd: WriteReq, Size: 64, addr: 105100, PC: NoPC, time: 0
system.mem_ctrls::functionalAccess() Cmd: WriteReq, Size: 64, addr: 105200, PC: NoPC, time: 0
system.mem_ctrls::functionalAccess() Cmd: WriteReq, Size: 64, addr: 105300, PC: NoPC, time: 0
system.mem_ctrls::functionalAccess() Cmd: WriteReq, Size: 64, addr: 105400, PC: NoPC, time: 0
system.mem_ctrls::functionalAccess() Cmd: WriteReq, Size: 64, addr: 105500, PC: NoPC, time: 0
system.mem_ctrls::functionalAccess() Cmd: WriteReq, Size: 64, addr: 105600, PC: NoPC, time: 0
system.mem_ctrls::functionalAccess() Cmd: WriteReq, Size: 64, addr: 105700, PC: NoPC, time: 0
system.mem_ctrls::functionalAccess() Cmd: WriteReq, Size: 64, addr: 106000, PC: NoPC, time: 0
system.mem_ctrls::functionalAccess() Cmd: WriteReq, Size: 64, addr: 106100, PC: NoPC, time: 0
system.mem_ctrls::functionalAccess() Cmd: WriteReq, Size: 64, addr: 106200, PC: NoPC, time: 0
system.mem_ctrls::functionalAccess() Cmd: WriteReq, Size: 64, addr: 106300, PC: NoPC, time: 0
system.mem_ctrls::functionalAccess() Cmd: WriteReq, Size: 64, addr: 106400, PC: NoPC, time: 0
system.mem_ctrls::functionalAccess() Cmd: WriteReq, Size: 64, addr: 106500, PC: NoPC, time: 0
system.mem_ctrls::functionalAccess() Cmd: WriteReq, Size: 64, addr: 106600, PC: NoPC, time: 0
system.mem_ctrls::functionalAccess() Cmd: WriteReq, Size: 64, addr: 106700, PC: NoPC, time: 0
system.mem_ctrls::functionalAccess() Cmd: WriteReq, Size: 64, addr: 107000, PC: NoPC, time: 0
system.mem_ctrls::functionalAccess() Cmd: WriteReq, Size: 64, addr: 107100, PC: NoPC, time: 0
system.mem_ctrls::functionalAccess() Cmd: WriteReq, Size: 64, addr: 107200, PC: NoPC, time: 0
system.mem_ctrls::functionalAccess() Cmd: WriteReq, Size: 64, addr: 107300, PC: NoPC, time: 0
system.mem_ctrls::functionalAccess() Cmd: WriteReq, Size: 64, addr: 107400, PC: NoPC, time: 0
system.mem_ctrls::functionalAccess() Cmd: WriteReq, Size: 64, addr: 107500, PC: NoPC, time: 0
system.mem_ctrls::functionalAccess() Cmd: WriteReq, Size: 64, addr: 107600, PC: NoPC, time: 0
system.mem_ctrls::functionalAccess() Cmd: WriteReq, Size: 64, addr: 107700, PC: NoPC, time: 0
system.mem_ctrls::functionalAccess() Cmd: WriteReq, Size: 64, addr: 110000, PC: NoPC, time: 0
system.mem_ctrls::functionalAccess() Cmd: WriteReq, Size: 64, addr: 110100, PC: NoPC, time: 0
system.mem_ctrls::functionalAccess() Cmd: WriteReq, Size: 64, addr: 110200, PC: NoPC, time: 0
system.mem_ctrls::functionalAccess() Cmd: WriteReq, Size: 64, addr: 110300, PC: NoPC, time: 0
system.mem_ctrls::functionalAccess() Cmd: WriteReq, Size: 64, addr: 110400, PC: NoPC, time: 0
system.mem_ctrls::functionalAccess() Cmd: WriteReq, Size: 64, addr: 110500, PC: NoPC, time: 0
system.mem_ctrls::functionalAccess() Cmd: WriteReq, Size: 64, addr: 110600, PC: NoPC, time: 0
system.mem_ctrls::functionalAccess() Cmd: WriteReq, Size: 64, addr: 110700, PC: NoPC, time: 0
system.mem_ctrls::functionalAccess() Cmd: WriteReq, Size: 64, addr: 111000, PC: NoPC, time: 0
system.mem_ctrls::functionalAccess() Cmd: WriteReq, Size: 64, addr: 111100, PC: NoPC, time: 0
system.mem_ctrls::functionalAccess() Cmd: WriteReq, Size: 64, addr: 111200, PC: NoPC, time: 0
system.mem_ctrls::functionalAccess() Cmd: WriteReq, Size: 64, addr: 111300, PC: NoPC, time: 0
system.mem_ctrls::functionalAccess() Cmd: WriteReq, Size: 64, addr: 111400, PC: NoPC, time: 0
system.mem_ctrls::functionalAccess() Cmd: WriteReq, Size: 64, addr: 111500, PC: NoPC, time: 0
system.mem_ctrls::functionalAccess() Cmd: WriteReq, Size: 64, addr: 111600, PC: NoPC, time: 0
system.mem_ctrls::functionalAccess() Cmd: WriteReq, Size: 64, addr: 111700, PC: NoPC, time: 0
system.mem_ctrls::functionalAccess() Cmd: WriteReq, Size: 64, addr: 112000, PC: NoPC, time: 0
system.mem_ctrls::functionalAccess() Cmd: WriteReq, Size: 64, addr: 112100, PC: NoPC, time: 0
system.mem_ctrls::functionalAccess() Cmd: WriteReq, Size: 64, addr: 112200, PC: NoPC, time: 0
system.mem_ctrls::functionalAccess() Cmd: WriteReq, Size: 64, addr: 112300, PC: NoPC, time: 0
system.mem_ctrls::functionalAccess() Cmd: WriteReq, Size: 64, addr: 112400, PC: NoPC, time: 0
system.mem_ctrls::functionalAccess() Cmd: WriteReq, Size: 64, addr: 112500, PC: NoPC, time: 0
system.mem_ctrls::functionalAccess() Cmd: WriteReq, Size: 64, addr: 112600, PC: NoPC, time: 0
system.mem_ctrls::functionalAccess() Cmd: WriteReq, Size: 64, addr: 112700, PC: NoPC, time: 0
system.mem_ctrls::functionalAccess() Cmd: WriteReq, Size: 64, addr: 113000, PC: NoPC, time: 0
system.mem_ctrls::functionalAccess() Cmd: WriteReq, Size: 64, addr: 113100, PC: NoPC, time: 0
system.mem_ctrls::functionalAccess() Cmd: WriteReq, Size: 64, addr: 113200, PC: NoPC, time: 0
system.mem_ctrls::functionalAccess() Cmd: WriteReq, Size: 64, addr: 113300, PC: NoPC, time: 0
system.mem_ctrls::functionalAccess() Cmd: WriteReq, Size: 64, addr: 113400, PC: NoPC, time: 0
system.mem_ctrls::functionalAccess() Cmd: WriteReq, Size: 64, addr: 113500, PC: NoPC, time: 0
system.mem_ctrls::functionalAccess() Cmd: WriteReq, Size: 64, addr: 113600, PC: NoPC, time: 0
system.mem_ctrls::functionalAccess() Cmd: WriteReq, Size: 64, addr: 113700, PC: NoPC, time: 0
system.mem_ctrls::functionalAccess() Cmd: WriteReq, Size: 64, addr: 114000, PC: NoPC, time: 0
system.mem_ctrls::functionalAccess() Cmd: WriteReq, Size: 64, addr: 114100, PC: NoPC, time: 0
system.mem_ctrls::functionalAccess() Cmd: WriteReq, Size: 64, addr: 114200, PC: NoPC, time: 0
system.mem_ctrls::functionalAccess() Cmd: WriteReq, Size: 64, addr: 114300, PC: NoPC, time: 0
system.mem_ctrls::functionalAccess() Cmd: WriteReq, Size: 64, addr: 114400, PC: NoPC, time: 0
system.mem_ctrls::functionalAccess() Cmd: WriteReq, Size: 64, addr: 114500, PC: NoPC, time: 0
system.mem_ctrls::functionalAccess() Cmd: WriteReq, Size: 64, addr: 114600, PC: NoPC, time: 0
system.mem_ctrls::functionalAccess() Cmd: WriteReq, Size: 64, addr: 114700, PC: NoPC, time: 0
system.mem_ctrls::functionalAccess() Cmd: WriteReq, Size: 64, addr: 115000, PC: NoPC, time: 0
system.mem_ctrls::functionalAccess() Cmd: WriteReq, Size: 64, addr: 115100, PC: NoPC, time: 0
system.mem_ctrls::functionalAccess() Cmd: WriteReq, Size: 64, addr: 115200, PC: NoPC, time: 0
system.mem_ctrls::functionalAccess() Cmd: WriteReq, Size: 64, addr: 115300, PC: NoPC, time: 0
system.mem_ctrls::functionalAccess() Cmd: WriteReq, Size: 64, addr: 115400, PC: NoPC, time: 0
system.mem_ctrls::functionalAccess() Cmd: WriteReq, Size: 64, addr: 115500, PC: NoPC, time: 0
system.mem_ctrls::functionalAccess() Cmd: WriteReq, Size: 64, addr: 115600, PC: NoPC, time: 0
system.mem_ctrls::functionalAccess() Cmd: WriteReq, Size: 64, addr: 115700, PC: NoPC, time: 0
system.mem_ctrls::functionalAccess() Cmd: WriteReq, Size: 64, addr: 116000, PC: NoPC, time: 0
system.mem_ctrls::functionalAccess() Cmd: WriteReq, Size: 64, addr: 116100, PC: NoPC, time: 0
system.mem_ctrls::functionalAccess() Cmd: WriteReq, Size: 64, addr: 116200, PC: NoPC, time: 0
system.mem_ctrls::functionalAccess() Cmd: WriteReq, Size: 64, addr: 116300, PC: NoPC, time: 0
system.mem_ctrls::functionalAccess() Cmd: WriteReq, Size: 64, addr: 116400, PC: NoPC, time: 0
system.mem_ctrls::functionalAccess() Cmd: WriteReq, Size: 64, addr: 116500, PC: NoPC, time: 0
system.mem_ctrls::functionalAccess() Cmd: WriteReq, Size: 64, addr: 116600, PC: NoPC, time: 0
system.mem_ctrls::functionalAccess() Cmd: WriteReq, Size: 64, addr: 116700, PC: NoPC, time: 0
system.mem_ctrls::functionalAccess() Cmd: WriteReq, Size: 64, addr: 117000, PC: NoPC, time: 0
system.mem_ctrls::functionalAccess() Cmd: WriteReq, Size: 64, addr: 117100, PC: NoPC, time: 0
system.mem_ctrls::functionalAccess() Cmd: WriteReq, Size: 64, addr: 117200, PC: NoPC, time: 0
system.mem_ctrls::functionalAccess() Cmd: WriteReq, Size: 64, addr: 117300, PC: NoPC, time: 0
system.mem_ctrls::functionalAccess() Cmd: WriteReq, Size: 64, addr: 117400, PC: NoPC, time: 0
system.mem_ctrls::functionalAccess() Cmd: WriteReq, Size: 64, addr: 117500, PC: NoPC, time: 0
system.mem_ctrls::functionalAccess() Cmd: WriteReq, Size: 64, addr: 117600, PC: NoPC, time: 0
system.mem_ctrls::functionalAccess() Cmd: WriteReq, Size: 64, addr: 117700, PC: NoPC, time: 0
system.mem_ctrls::functionalAccess() Cmd: WriteReq, Size: 64, addr: 120000, PC: NoPC, time: 0
system.mem_ctrls::functionalAccess() Cmd: WriteReq, Size: 64, addr: 120100, PC: NoPC, time: 0
system.mem_ctrls::functionalAccess() Cmd: WriteReq, Size: 64, addr: 120200, PC: NoPC, time: 0
system.mem_ctrls::functionalAccess() Cmd: WriteReq, Size: 64, addr: 120300, PC: NoPC, time: 0
system.mem_ctrls::functionalAccess() Cmd: WriteReq, Size: 64, addr: 120400, PC: NoPC, time: 0
system.mem_ctrls::functionalAccess() Cmd: WriteReq, Size: 64, addr: 120500, PC: NoPC, time: 0
system.mem_ctrls::functionalAccess() Cmd: WriteReq, Size: 64, addr: 120600, PC: NoPC, time: 0
system.mem_ctrls::functionalAccess() Cmd: WriteReq, Size: 64, addr: 120700, PC: NoPC, time: 0
system.mem_ctrls::functionalAccess() Cmd: WriteReq, Size: 64, addr: 121000, PC: NoPC, time: 0
system.mem_ctrls::functionalAccess() Cmd: WriteReq, Size: 64, addr: 121100, PC: NoPC, time: 0
system.mem_ctrls::functionalAccess() Cmd: WriteReq, Size: 64, addr: 121200, PC: NoPC, time: 0
system.mem_ctrls::functionalAccess() Cmd: WriteReq, Size: 64, addr: 121300, PC: NoPC, time: 0
system.mem_ctrls::functionalAccess() Cmd: WriteReq, Size: 64, addr: 121400, PC: NoPC, time: 0
system.mem_ctrls::functionalAccess() Cmd: WriteReq, Size: 64, addr: 121500, PC: NoPC, time: 0
system.mem_ctrls::functionalAccess() Cmd: WriteReq, Size: 64, addr: 121600, PC: NoPC, time: 0
system.mem_ctrls::functionalAccess() Cmd: WriteReq, Size: 64, addr: 121700, PC: NoPC, time: 0
system.mem_ctrls::functionalAccess() Cmd: WriteReq, Size: 64, addr: 122000, PC: NoPC, time: 0
system.mem_ctrls::functionalAccess() Cmd: WriteReq, Size: 64, addr: 122100, PC: NoPC, time: 0
system.mem_ctrls::functionalAccess() Cmd: WriteReq, Size: 64, addr: 122200, PC: NoPC, time: 0
system.mem_ctrls::functionalAccess() Cmd: WriteReq, Size: 64, addr: 122300, PC: NoPC, time: 0
system.mem_ctrls::functionalAccess() Cmd: WriteReq, Size: 64, addr: 122400, PC: NoPC, time: 0
system.mem_ctrls::functionalAccess() Cmd: WriteReq, Size: 64, addr: 122500, PC: NoPC, time: 0
system.mem_ctrls::functionalAccess() Cmd: WriteReq, Size: 64, addr: 122600, PC: NoPC, time: 0
system.mem_ctrls::functionalAccess() Cmd: WriteReq, Size: 64, addr: 122700, PC: NoPC, time: 0
system.mem_ctrls::functionalAccess() Cmd: WriteReq, Size: 64, addr: 123000, PC: NoPC, time: 0
system.mem_ctrls::functionalAccess() Cmd: WriteReq, Size: 64, addr: 123100, PC: NoPC, time: 0
system.mem_ctrls::functionalAccess() Cmd: WriteReq, Size: 64, addr: 123200, PC: NoPC, time: 0
system.mem_ctrls::functionalAccess() Cmd: WriteReq, Size: 64, addr: 123300, PC: NoPC, time: 0
system.mem_ctrls::functionalAccess() Cmd: WriteReq, Size: 64, addr: 123400, PC: NoPC, time: 0
system.mem_ctrls::functionalAccess() Cmd: WriteReq, Size: 64, addr: 123500, PC: NoPC, time: 0
system.mem_ctrls::functionalAccess() Cmd: WriteReq, Size: 64, addr: 123600, PC: NoPC, time: 0
system.mem_ctrls::functionalAccess() Cmd: WriteReq, Size: 64, addr: 123700, PC: NoPC, time: 0
system.mem_ctrls::functionalAccess() Cmd: WriteReq, Size: 64, addr: 124000, PC: NoPC, time: 0
system.mem_ctrls::functionalAccess() Cmd: WriteReq, Size: 64, addr: 124100, PC: NoPC, time: 0
system.mem_ctrls::functionalAccess() Cmd: WriteReq, Size: 64, addr: 124200, PC: NoPC, time: 0
system.mem_ctrls::functionalAccess() Cmd: WriteReq, Size: 64, addr: 124300, PC: NoPC, time: 0
system.mem_ctrls::functionalAccess() Cmd: WriteReq, Size: 64, addr: 124400, PC: NoPC, time: 0
system.mem_ctrls::functionalAccess() Cmd: WriteReq, Size: 64, addr: 124500, PC: NoPC, time: 0
system.mem_ctrls::functionalAccess() Cmd: WriteReq, Size: 64, addr: 124600, PC: NoPC, time: 0
system.mem_ctrls::functionalAccess() Cmd: WriteReq, Size: 64, addr: 124700, PC: NoPC, time: 0
system.mem_ctrls::functionalAccess() Cmd: WriteReq, Size: 64, addr: 125000, PC: NoPC, time: 0
system.mem_ctrls::functionalAccess() Cmd: WriteReq, Size: 64, addr: 125100, PC: NoPC, time: 0
system.mem_ctrls::functionalAccess() Cmd: WriteReq, Size: 64, addr: 125200, PC: NoPC, time: 0
system.mem_ctrls::functionalAccess() Cmd: WriteReq, Size: 64, addr: 125300, PC: NoPC, time: 0
system.mem_ctrls::functionalAccess() Cmd: WriteReq, Size: 64, addr: 125400, PC: NoPC, time: 0
system.mem_ctrls::functionalAccess() Cmd: WriteReq, Size: 64, addr: 125500, PC: NoPC, time: 0
system.mem_ctrls::functionalAccess() Cmd: WriteReq, Size: 64, addr: 125600, PC: NoPC, time: 0
system.mem_ctrls::functionalAccess() Cmd: WriteReq, Size: 64, addr: 125700, PC: NoPC, time: 0
system.mem_ctrls::functionalAccess() Cmd: WriteReq, Size: 64, addr: 126000, PC: NoPC, time: 0
system.mem_ctrls::functionalAccess() Cmd: WriteReq, Size: 64, addr: 126100, PC: NoPC, time: 0
system.mem_ctrls::functionalAccess() Cmd: WriteReq, Size: 64, addr: 126200, PC: NoPC, time: 0
system.mem_ctrls::functionalAccess() Cmd: WriteReq, Size: 64, addr: 126300, PC: NoPC, time: 0
system.mem_ctrls::functionalAccess() Cmd: WriteReq, Size: 64, addr: 126400, PC: NoPC, time: 0
system.mem_ctrls::functionalAccess() Cmd: WriteReq, Size: 64, addr: 126500, PC: NoPC, time: 0
system.mem_ctrls::functionalAccess() Cmd: WriteReq, Size: 64, addr: 126600, PC: NoPC, time: 0
system.mem_ctrls::functionalAccess() Cmd: WriteReq, Size: 64, addr: 126700, PC: NoPC, time: 0
system.mem_ctrls::functionalAccess() Cmd: WriteReq, Size: 64, addr: 127000, PC: NoPC, time: 0
system.mem_ctrls::functionalAccess() Cmd: WriteReq, Size: 64, addr: 127100, PC: NoPC, time: 0
system.mem_ctrls::functionalAccess() Cmd: WriteReq, Size: 64, addr: 127200, PC: NoPC, time: 0
system.mem_ctrls::functionalAccess() Cmd: WriteReq, Size: 64, addr: 127300, PC: NoPC, time: 0
system.mem_ctrls::functionalAccess() Cmd: WriteReq, Size: 64, addr: 127400, PC: NoPC, time: 0
system.mem_ctrls::functionalAccess() Cmd: WriteReq, Size: 64, addr: 127500, PC: NoPC, time: 0
system.mem_ctrls::functionalAccess() Cmd: WriteReq, Size: 64, addr: 127600, PC: NoPC, time: 0
system.mem_ctrls::functionalAccess() Cmd: WriteReq, Size: 64, addr: 127700, PC: NoPC, time: 0
system.mem_ctrls::functionalAccess() Cmd: WriteReq, Size: 64, addr: 130000, PC: NoPC, time: 0
system.mem_ctrls::functionalAccess() Cmd: WriteReq, Size: 64, addr: 130100, PC: NoPC, time: 0
system.mem_ctrls::functionalAccess() Cmd: WriteReq, Size: 64, addr: 130200, PC: NoPC, time: 0
system.mem_ctrls::functionalAccess() Cmd: WriteReq, Size: 64, addr: 130300, PC: NoPC, time: 0
[...]
system.mem_ctrls::functionalAccess() Cmd: WriteReq, Size: 1, addr: 4737706, PC: NoPC, time: 0
system.mem_ctrls::functionalAccess() Cmd: WriteReq, Size: 1, addr: 4737707, PC: NoPC, time: 0
system.mem_ctrls::functionalAccess() Cmd: WriteReq, Size: 1, addr: 4737710, PC: NoPC, time: 0
system.mem_ctrls::functionalAccess() Cmd: WriteReq, Size: 1, addr: 4737711, PC: NoPC, time: 0
system.mem_ctrls::functionalAccess() Cmd: WriteReq, Size: 1, addr: 4737712, PC: NoPC, time: 0
system.mem_ctrls::functionalAccess() Cmd: WriteReq, Size: 1, addr: 4737713, PC: NoPC, time: 0
system.mem_ctrls::functionalAccess() Cmd: WriteReq, Size: 1, addr: 4737714, PC: NoPC, time: 0
system.mem_ctrls::functionalAccess() Cmd: WriteReq, Size: 1, addr: 4737715, PC: NoPC, time: 0
system.mem_ctrls::functionalAccess() Cmd: WriteReq, Size: 1, addr: 4737716, PC: NoPC, time: 0
system.mem_ctrls::functionalAccess() Cmd: WriteReq, Size: 1, addr: 4737717, PC: NoPC, time: 0
system.mem_ctrls::functionalAccess() Cmd: WriteReq, Size: 1, addr: 4737720, PC: NoPC, time: 0
system.mem_ctrls::functionalAccess() Cmd: WriteReq, Size: 1, addr: 4737721, PC: NoPC, time: 0
system.mem_ctrls::functionalAccess() Cmd: WriteReq, Size: 1, addr: 4737722, PC: NoPC, time: 0
system.mem_ctrls::functionalAccess() Cmd: WriteReq, Size: 1, addr: 4737723, PC: NoPC, time: 0
system.mem_ctrls::functionalAccess() Cmd: WriteReq, Size: 1, addr: 4737724, PC: NoPC, time: 0
system.mem_ctrls::functionalAccess() Cmd: WriteReq, Size: 1, addr: 4737725, PC: NoPC, time: 0
system.mem_ctrls::functionalAccess() Cmd: WriteReq, Size: 1, addr: 4737726, PC: NoPC, time: 0
system.mem_ctrls::functionalAccess() Cmd: WriteReq, Size: 1, addr: 4737727, PC: NoPC, time: 0
system.mem_ctrls::functionalAccess() Cmd: WriteReq, Size: 1, addr: 4737730, PC: NoPC, time: 0
system.mem_ctrls::functionalAccess() Cmd: WriteReq, Size: 1, addr: 4737731, PC: NoPC, time: 0
system.mem_ctrls::functionalAccess() Cmd: WriteReq, Size: 1, addr: 4737732, PC: NoPC, time: 0
system.mem_ctrls::functionalAccess() Cmd: WriteReq, Size: 1, addr: 4737733, PC: NoPC, time: 0
system.mem_ctrls::functionalAccess() Cmd: WriteReq, Size: 1, addr: 4737734, PC: NoPC, time: 0
system.mem_ctrls::functionalAccess() Cmd: WriteReq, Size: 1, addr: 4737735, PC: NoPC, time: 0
system.mem_ctrls::functionalAccess() Cmd: WriteReq, Size: 1, addr: 4737736, PC: NoPC, time: 0
system.mem_ctrls::functionalAccess() Cmd: WriteReq, Size: 1, addr: 4737737, PC: NoPC, time: 0
system.mem_ctrls::functionalAccess() Cmd: WriteReq, Size: 1, addr: 4737740, PC: NoPC, time: 0
system.mem_ctrls::functionalAccess() Cmd: WriteReq, Size: 1, addr: 4737741, PC: NoPC, time: 0
system.mem_ctrls::functionalAccess() Cmd: WriteReq, Size: 1, addr: 4737742, PC: NoPC, time: 0
system.mem_ctrls::functionalAccess() Cmd: WriteReq, Size: 1, addr: 4737743, PC: NoPC, time: 0
system.mem_ctrls::functionalAccess() Cmd: WriteReq, Size: 1, addr: 4737744, PC: NoPC, time: 0
system.mem_ctrls::functionalAccess() Cmd: WriteReq, Size: 1, addr: 4737745, PC: NoPC, time: 0
system.mem_ctrls::functionalAccess() Cmd: WriteReq, Size: 1, addr: 4737746, PC: NoPC, time: 0
system.mem_ctrls::functionalAccess() Cmd: WriteReq, Size: 1, addr: 4737747, PC: NoPC, time: 0
system.mem_ctrls::functionalAccess() Cmd: WriteReq, Size: 1, addr: 4737750, PC: NoPC, time: 0
system.mem_ctrls::functionalAccess() Cmd: WriteReq, Size: 1, addr: 4737751, PC: NoPC, time: 0
system.mem_ctrls::functionalAccess() Cmd: WriteReq, Size: 1, addr: 4737752, PC: NoPC, time: 0
system.mem_ctrls::functionalAccess() Cmd: WriteReq, Size: 1, addr: 4737753, PC: NoPC, time: 0
system.mem_ctrls::functionalAccess() Cmd: WriteReq, Size: 1, addr: 4737754, PC: NoPC, time: 0
system.mem_ctrls::functionalAccess() Cmd: WriteReq, Size: 1, addr: 4737755, PC: NoPC, time: 0
system.mem_ctrls::functionalAccess() Cmd: WriteReq, Size: 1, addr: 4737756, PC: NoPC, time: 0
system.mem_ctrls::functionalAccess() Cmd: WriteReq, Size: 1, addr: 4737757, PC: NoPC, time: 0
system.mem_ctrls::functionalAccess() Cmd: WriteReq, Size: 1, addr: 4737760, PC: NoPC, time: 0
system.mem_ctrls::functionalAccess() Cmd: WriteReq, Size: 1, addr: 4737761, PC: NoPC, time: 0
system.mem_ctrls::functionalAccess() Cmd: WriteReq, Size: 1, addr: 4737762, PC: NoPC, time: 0
system.mem_ctrls::functionalAccess() Cmd: WriteReq, Size: 1, addr: 4737763, PC: NoPC, time: 0
system.mem_ctrls::functionalAccess() Cmd: WriteReq, Size: 1, addr: 4737764, PC: NoPC, time: 0
system.mem_ctrls::functionalAccess() Cmd: WriteReq, Size: 1, addr: 4737765, PC: NoPC, time: 0
system.mem_ctrls::functionalAccess() Cmd: WriteReq, Size: 1, addr: 4737766, PC: NoPC, time: 0
system.mem_ctrls::functionalAccess() Cmd: WriteReq, Size: 1, addr: 4737767, PC: NoPC, time: 0
system.mem_ctrls::functionalAccess() Cmd: WriteReq, Size: 8, addr: 4736700, PC: NoPC, time: 0
system.mem_ctrls::functionalAccess() Cmd: WriteReq, Size: 8, addr: 4736710, PC: NoPC, time: 0
system.mem_ctrls::functionalAccess() Cmd: WriteReq, Size: 8, addr: 4736720, PC: NoPC, time: 0
system.mem_ctrls::functionalAccess() Cmd: WriteReq, Size: 8, addr: 4736730, PC: NoPC, time: 0
system.mem_ctrls::functionalAccess() Cmd: WriteReq, Size: 8, addr: 4736740, PC: NoPC, time: 0
system.mem_ctrls::functionalAccess() Cmd: WriteReq, Size: 8, addr: 4736750, PC: NoPC, time: 0
system.mem_ctrls::functionalAccess() Cmd: WriteReq, Size: 8, addr: 4736760, PC: NoPC, time: 0
system.mem_ctrls::functionalAccess() Cmd: WriteReq, Size: 8, addr: 4736770, PC: NoPC, time: 0
system.mem_ctrls::functionalAccess() Cmd: WriteReq, Size: 8, addr: 4737000, PC: NoPC, time: 0
system.mem_ctrls::functionalAccess() Cmd: WriteReq, Size: 8, addr: 4737010, PC: NoPC, time: 0
system.mem_ctrls::functionalAccess() Cmd: WriteReq, Size: 8, addr: 4737020, PC: NoPC, time: 0
system.mem_ctrls::functionalAccess() Cmd: WriteReq, Size: 8, addr: 4737030, PC: NoPC, time: 0
system.mem_ctrls::functionalAccess() Cmd: WriteReq, Size: 8, addr: 4737040, PC: NoPC, time: 0
system.mem_ctrls::functionalAccess() Cmd: WriteReq, Size: 8, addr: 4737050, PC: NoPC, time: 0
system.mem_ctrls::functionalAccess() Cmd: WriteReq, Size: 8, addr: 4737060, PC: NoPC, time: 0
system.mem_ctrls::functionalAccess() Cmd: WriteReq, Size: 8, addr: 4737070, PC: NoPC, time: 0
system.mem_ctrls::functionalAccess() Cmd: WriteReq, Size: 8, addr: 4737100, PC: NoPC, time: 0
system.mem_ctrls::functionalAccess() Cmd: WriteReq, Size: 8, addr: 4737110, PC: NoPC, time: 0
system.mem_ctrls::functionalAccess() Cmd: WriteReq, Size: 8, addr: 4737120, PC: NoPC, time: 0
system.mem_ctrls::functionalAccess() Cmd: WriteReq, Size: 8, addr: 4737130, PC: NoPC, time: 0
system.mem_ctrls::functionalAccess() Cmd: WriteReq, Size: 8, addr: 4737140, PC: NoPC, time: 0
system.mem_ctrls::functionalAccess() Cmd: WriteReq, Size: 8, addr: 4737150, PC: NoPC, time: 0
system.mem_ctrls::functionalAccess() Cmd: WriteReq, Size: 8, addr: 4737160, PC: NoPC, time: 0
system.mem_ctrls::functionalAccess() Cmd: WriteReq, Size: 8, addr: 4737170, PC: NoPC, time: 0
system.mem_ctrls::functionalAccess() Cmd: WriteReq, Size: 8, addr: 4737200, PC: NoPC, time: 0
system.mem_ctrls::functionalAccess() Cmd: WriteReq, Size: 8, addr: 4737210, PC: NoPC, time: 0
system.mem_ctrls::functionalAccess() Cmd: WriteReq, Size: 8, addr: 4737220, PC: NoPC, time: 0
system.mem_ctrls::functionalAccess() Cmd: WriteReq, Size: 8, addr: 4737230, PC: NoPC, time: 0
system.mem_ctrls::functionalAccess() Cmd: WriteReq, Size: 8, addr: 4737240, PC: NoPC, time: 0
system.mem_ctrls::functionalAccess() Cmd: WriteReq, Size: 8, addr: 4737250, PC: NoPC, time: 0
system.mem_ctrls::functionalAccess() Cmd: WriteReq, Size: 8, addr: 4737260, PC: NoPC, time: 0
system.mem_ctrls::functionalAccess() Cmd: WriteReq, Size: 8, addr: 4737270, PC: NoPC, time: 0
system.mem_ctrls::functionalAccess() Cmd: WriteReq, Size: 8, addr: 4737300, PC: NoPC, time: 0
system.mem_ctrls::functionalAccess() Cmd: WriteReq, Size: 8, addr: 4737310, PC: NoPC, time: 0
system.mem_ctrls::functionalAccess() Cmd: WriteReq, Size: 8, addr: 4737320, PC: NoPC, time: 0
system.mem_ctrls::functionalAccess() Cmd: WriteReq, Size: 8, addr: 4737330, PC: NoPC, time: 0
system.mem_ctrls::functionalAccess() Cmd: WriteReq, Size: 8, addr: 4737340, PC: NoPC, time: 0
system.mem_ctrls::functionalAccess() Cmd: WriteReq, Size: 8, addr: 4737350, PC: NoPC, time: 0
system.mem_ctrls::functionalAccess() Cmd: WriteReq, Size: 1, addr: 4737371, PC: NoPC, time: 0
system.mem_ctrls::functionalAccess() Cmd: WriteReq, Size: 1, addr: 4737372, PC: NoPC, time: 0
system.mem_ctrls::functionalAccess() Cmd: WriteReq, Size: 1, addr: 4737373, PC: NoPC, time: 0
system.mem_ctrls::functionalAccess() Cmd: WriteReq, Size: 1, addr: 4737374, PC: NoPC, time: 0
system.mem_ctrls::functionalAccess() Cmd: WriteReq, Size: 1, addr: 4737375, PC: NoPC, time: 0
system.mem_ctrls::functionalAccess() Cmd: WriteReq, Size: 1, addr: 4737376, PC: NoPC, time: 0
system.mem_ctrls::functionalAccess() Cmd: WriteReq, Size: 1, addr: 4737377, PC: NoPC, time: 0
system.mem_ctrls::functionalAccess() Cmd: WriteReq, Size: 8, addr: 4736670, PC: NoPC, time: 0
system.mem_ctrls::functionalAccess() Cmd: WriteReq, Size: 8, addr: 4736650, PC: NoPC, time: 0
system.mem_ctrls::functionalAccess() Cmd: WriteReq, Size: 1, addr: 4737436, PC: NoPC, time: 0
system.mem_ctrls::functionalAccess() Cmd: WriteReq, Size: 1, addr: 4737437, PC: NoPC, time: 0
system.mem_ctrls::functionalAccess() Cmd: WriteReq, Size: 1, addr: 4737440, PC: NoPC, time: 0
system.mem_ctrls::functionalAccess() Cmd: WriteReq, Size: 1, addr: 4737441, PC: NoPC, time: 0
system.mem_ctrls::functionalAccess() Cmd: WriteReq, Size: 1, addr: 4737442, PC: NoPC, time: 0
system.mem_ctrls::functionalAccess() Cmd: WriteReq, Size: 1, addr: 4737443, PC: NoPC, time: 0
system.mem_ctrls::functionalAccess() Cmd: WriteReq, Size: 1, addr: 4737444, PC: NoPC, time: 0
system.mem_ctrls::functionalAccess() Cmd: WriteReq, Size: 1, addr: 4737445, PC: NoPC, time: 0
system.mem_ctrls::functionalAccess() Cmd: WriteReq, Size: 1, addr: 4737446, PC: NoPC, time: 0
system.mem_ctrls::functionalAccess() Cmd: WriteReq, Size: 1, addr: 4737447, PC: NoPC, time: 0
system.mem_ctrls::functionalAccess() Cmd: WriteReq, Size: 1, addr: 4737450, PC: NoPC, time: 0
system.mem_ctrls::functionalAccess() Cmd: WriteReq, Size: 1, addr: 4737451, PC: NoPC, time: 0
system.mem_ctrls::functionalAccess() Cmd: WriteReq, Size: 1, addr: 4737452, PC: NoPC, time: 0
system.mem_ctrls::functionalAccess() Cmd: WriteReq, Size: 1, addr: 4737453, PC: NoPC, time: 0
system.mem_ctrls::functionalAccess() Cmd: WriteReq, Size: 1, addr: 4737454, PC: NoPC, time: 0
system.mem_ctrls::functionalAccess() Cmd: WriteReq, Size: 1, addr: 4737455, PC: NoPC, time: 0
system.mem_ctrls::functionalAccess() Cmd: WriteReq, Size: 1, addr: 4737456, PC: NoPC, time: 0
system.mem_ctrls::functionalAccess() Cmd: WriteReq, Size: 1, addr: 4737457, PC: NoPC, time: 0
system.mem_ctrls::functionalAccess() Cmd: WriteReq, Size: 1, addr: 4737460, PC: NoPC, time: 0
system.mem_ctrls::functionalAccess() Cmd: WriteReq, Size: 1, addr: 4737461, PC: NoPC, time: 0
system.mem_ctrls::functionalAccess() Cmd: WriteReq, Size: 1, addr: 4737462, PC: NoPC, time: 0
system.mem_ctrls::functionalAccess() Cmd: WriteReq, Size: 1, addr: 4737463, PC: NoPC, time: 0
system.mem_ctrls::functionalAccess() Cmd: WriteReq, Size: 1, addr: 4737464, PC: NoPC, time: 0
system.mem_ctrls::functionalAccess() Cmd: WriteReq, Size: 1, addr: 4737465, PC: NoPC, time: 0
system.mem_ctrls::functionalAccess() Cmd: WriteReq, Size: 1, addr: 4737466, PC: NoPC, time: 0
system.mem_ctrls::functionalAccess() Cmd: WriteReq, Size: 1, addr: 4737467, PC: NoPC, time: 0
system.mem_ctrls::functionalAccess() Cmd: WriteReq, Size: 1, addr: 4737470, PC: NoPC, time: 0
system.mem_ctrls::functionalAccess() Cmd: WriteReq, Size: 1, addr: 4737471, PC: NoPC, time: 0
system.mem_ctrls::functionalAccess() Cmd: WriteReq, Size: 1, addr: 4737472, PC: NoPC, time: 0
system.mem_ctrls::functionalAccess() Cmd: WriteReq, Size: 1, addr: 4737473, PC: NoPC, time: 0
system.mem_ctrls::functionalAccess() Cmd: WriteReq, Size: 1, addr: 4737474, PC: NoPC, time: 0
system.mem_ctrls::functionalAccess() Cmd: WriteReq, Size: 1, addr: 4737475, PC: NoPC, time: 0
system.mem_ctrls::functionalAccess() Cmd: WriteReq, Size: 1, addr: 4737476, PC: NoPC, time: 0
system.mem_ctrls::functionalAccess() Cmd: WriteReq, Size: 1, addr: 4737477, PC: NoPC, time: 0
system.mem_ctrls::functionalAccess() Cmd: WriteReq, Size: 1, addr: 4737500, PC: NoPC, time: 0
system.mem_ctrls::functionalAccess() Cmd: WriteReq, Size: 1, addr: 4737501, PC: NoPC, time: 0
system.mem_ctrls::functionalAccess() Cmd: WriteReq, Size: 1, addr: 4737502, PC: NoPC, time: 0
system.mem_ctrls::functionalAccess() Cmd: WriteReq, Size: 1, addr: 4737503, PC: NoPC, time: 0
system.mem_ctrls::functionalAccess() Cmd: WriteReq, Size: 1, addr: 4737504, PC: NoPC, time: 0
system.mem_ctrls::functionalAccess() Cmd: WriteReq, Size: 1, addr: 4737505, PC: NoPC, time: 0
system.mem_ctrls::functionalAccess() Cmd: WriteReq, Size: 1, addr: 4737506, PC: NoPC, time: 0
system.mem_ctrls::functionalAccess() Cmd: WriteReq, Size: 1, addr: 4737507, PC: NoPC, time: 0
system.mem_ctrls::functionalAccess() Cmd: WriteReq, Size: 1, addr: 4737510, PC: NoPC, time: 0
system.mem_ctrls::functionalAccess() Cmd: WriteReq, Size: 1, addr: 4737511, PC: NoPC, time: 0
system.mem_ctrls::functionalAccess() Cmd: WriteReq, Size: 1, addr: 4737512, PC: NoPC, time: 0
system.mem_ctrls::functionalAccess() Cmd: WriteReq, Size: 1, addr: 4737513, PC: NoPC, time: 0
system.mem_ctrls::functionalAccess() Cmd: WriteReq, Size: 1, addr: 4737514, PC: NoPC, time: 0
system.mem_ctrls::functionalAccess() Cmd: WriteReq, Size: 1, addr: 4737515, PC: NoPC, time: 0
system.mem_ctrls::functionalAccess() Cmd: WriteReq, Size: 1, addr: 4737516, PC: NoPC, time: 0
system.mem_ctrls::functionalAccess() Cmd: WriteReq, Size: 1, addr: 4737517, PC: NoPC, time: 0
system.mem_ctrls::functionalAccess() Cmd: WriteReq, Size: 1, addr: 4737520, PC: NoPC, time: 0
system.mem_ctrls::functionalAccess() Cmd: WriteReq, Size: 1, addr: 4737521, PC: NoPC, time: 0
system.mem_ctrls::functionalAccess() Cmd: WriteReq, Size: 1, addr: 4737522, PC: NoPC, time: 0
system.mem_ctrls::functionalAccess() Cmd: WriteReq, Size: 1, addr: 4737523, PC: NoPC, time: 0
system.mem_ctrls::functionalAccess() Cmd: WriteReq, Size: 1, addr: 4737524, PC: NoPC, time: 0
system.mem_ctrls::functionalAccess() Cmd: WriteReq, Size: 1, addr: 4737525, PC: NoPC, time: 0
system.mem_ctrls::functionalAccess() Cmd: WriteReq, Size: 1, addr: 4737526, PC: NoPC, time: 0
system.mem_ctrls::functionalAccess() Cmd: WriteReq, Size: 1, addr: 4737527, PC: NoPC, time: 0
system.mem_ctrls::functionalAccess() Cmd: WriteReq, Size: 1, addr: 4737530, PC: NoPC, time: 0
system.mem_ctrls::functionalAccess() Cmd: WriteReq, Size: 1, addr: 4737531, PC: NoPC, time: 0
system.mem_ctrls::functionalAccess() Cmd: WriteReq, Size: 1, addr: 4737532, PC: NoPC, time: 0
system.mem_ctrls::functionalAccess() Cmd: WriteReq, Size: 1, addr: 4737533, PC: NoPC, time: 0
system.mem_ctrls::functionalAccess() Cmd: WriteReq, Size: 1, addr: 4737534, PC: NoPC, time: 0
system.mem_ctrls::functionalAccess() Cmd: WriteReq, Size: 1, addr: 4737535, PC: NoPC, time: 0
system.mem_ctrls::functionalAccess() Cmd: WriteReq, Size: 1, addr: 4737536, PC: NoPC, time: 0
system.mem_ctrls::functionalAccess() Cmd: WriteReq, Size: 1, addr: 4737537, PC: NoPC, time: 0
system.mem_ctrls::functionalAccess() Cmd: WriteReq, Size: 1, addr: 4737540, PC: NoPC, time: 0
system.mem_ctrls::functionalAccess() Cmd: WriteReq, Size: 1, addr: 4737541, PC: NoPC, time: 0
system.mem_ctrls::functionalAccess() Cmd: WriteReq, Size: 1, addr: 4737542, PC: NoPC, time: 0
system.mem_ctrls::functionalAccess() Cmd: WriteReq, Size: 1, addr: 4737543, PC: NoPC, time: 0
system.mem_ctrls::functionalAccess() Cmd: WriteReq, Size: 1, addr: 4737544, PC: NoPC, time: 0
system.mem_ctrls::functionalAccess() Cmd: WriteReq, Size: 1, addr: 4737545, PC: NoPC, time: 0
system.mem_ctrls::functionalAccess() Cmd: WriteReq, Size: 1, addr: 4737546, PC: NoPC, time: 0
system.mem_ctrls::functionalAccess() Cmd: WriteReq, Size: 1, addr: 4737547, PC: NoPC, time: 0
system.mem_ctrls::functionalAccess() Cmd: WriteReq, Size: 1, addr: 4737550, PC: NoPC, time: 0
system.mem_ctrls::functionalAccess() Cmd: WriteReq, Size: 1, addr: 4737551, PC: NoPC, time: 0
system.mem_ctrls::functionalAccess() Cmd: WriteReq, Size: 1, addr: 4737552, PC: NoPC, time: 0
system.mem_ctrls::functionalAccess() Cmd: WriteReq, Size: 1, addr: 4737553, PC: NoPC, time: 0
system.mem_ctrls::functionalAccess() Cmd: WriteReq, Size: 1, addr: 4737554, PC: NoPC, time: 0
system.mem_ctrls::functionalAccess() Cmd: WriteReq, Size: 1, addr: 4737555, PC: NoPC, time: 0
system.mem_ctrls::functionalAccess() Cmd: WriteReq, Size: 1, addr: 4737556, PC: NoPC, time: 0
system.mem_ctrls::functionalAccess() Cmd: WriteReq, Size: 1, addr: 4737557, PC: NoPC, time: 0
system.mem_ctrls::functionalAccess() Cmd: WriteReq, Size: 1, addr: 4737560, PC: NoPC, time: 0
system.mem_ctrls::functionalAccess() Cmd: WriteReq, Size: 1, addr: 4737561, PC: NoPC, time: 0
system.mem_ctrls::functionalAccess() Cmd: WriteReq, Size: 1, addr: 4737562, PC: NoPC, time: 0
system.mem_ctrls::functionalAccess() Cmd: WriteReq, Size: 1, addr: 4737563, PC: NoPC, time: 0
system.mem_ctrls::functionalAccess() Cmd: WriteReq, Size: 1, addr: 4737564, PC: NoPC, time: 0
system.mem_ctrls::functionalAccess() Cmd: WriteReq, Size: 1, addr: 4737565, PC: NoPC, time: 0
system.mem_ctrls::functionalAccess() Cmd: WriteReq, Size: 1, addr: 4737566, PC: NoPC, time: 0
system.mem_ctrls::functionalAccess() Cmd: WriteReq, Size: 1, addr: 4737567, PC: NoPC, time: 0
system.mem_ctrls::functionalAccess() Cmd: WriteReq, Size: 1, addr: 4737570, PC: NoPC, time: 0
system.mem_ctrls::functionalAccess() Cmd: WriteReq, Size: 1, addr: 4737571, PC: NoPC, time: 0
system.mem_ctrls::functionalAccess() Cmd: WriteReq, Size: 1, addr: 4737572, PC: NoPC, time: 0
system.mem_ctrls::functionalAccess() Cmd: WriteReq, Size: 1, addr: 4737573, PC: NoPC, time: 0
system.mem_ctrls::functionalAccess() Cmd: WriteReq, Size: 1, addr: 4737574, PC: NoPC, time: 0
system.mem_ctrls::functionalAccess() Cmd: WriteReq, Size: 1, addr: 4737575, PC: NoPC, time: 0
system.mem_ctrls::functionalAccess() Cmd: WriteReq, Size: 1, addr: 4737576, PC: NoPC, time: 0
system.mem_ctrls::functionalAccess() Cmd: WriteReq, Size: 1, addr: 4737577, PC: NoPC, time: 0
system.mem_ctrls::functionalAccess() Cmd: WriteReq, Size: 1, addr: 4737600, PC: NoPC, time: 0
system.mem_ctrls::functionalAccess() Cmd: WriteReq, Size: 1, addr: 4737601, PC: NoPC, time: 0
system.mem_ctrls::functionalAccess() Cmd: WriteReq, Size: 1, addr: 4737602, PC: NoPC, time: 0
system.mem_ctrls::functionalAccess() Cmd: WriteReq, Size: 1, addr: 4737603, PC: NoPC, time: 0
system.mem_ctrls::functionalAccess() Cmd: WriteReq, Size: 1, addr: 4737604, PC: NoPC, time: 0
system.mem_ctrls::functionalAccess() Cmd: WriteReq, Size: 1, addr: 4737605, PC: NoPC, time: 0
system.mem_ctrls::functionalAccess() Cmd: WriteReq, Size: 1, addr: 4737606, PC: NoPC, time: 0
system.mem_ctrls::functionalAccess() Cmd: WriteReq, Size: 1, addr: 4737607, PC: NoPC, time: 0
system.mem_ctrls::functionalAccess() Cmd: WriteReq, Size: 1, addr: 4737610, PC: NoPC, time: 0
system.mem_ctrls::functionalAccess() Cmd: WriteReq, Size: 1, addr: 4737611, PC: NoPC, time: 0
system.mem_ctrls::functionalAccess() Cmd: WriteReq, Size: 1, addr: 4737612, PC: NoPC, time: 0
system.mem_ctrls::functionalAccess() Cmd: WriteReq, Size: 8, addr: 4736660, PC: NoPC, time: 0
system.mem_ctrls::functionalAccess() Cmd: WriteReq, Size: 8, addr: 4736640, PC: NoPC, time: 0
system.mem_ctrls::functionalAccess() Cmd: WriteReq, Size: 10, addr: 4742000, PC: NoPC, time: 0
system.mem_ctrls::functionalAccess() Cmd: WriteReq, Size: 10, addr: 4740000, PC: NoPC, time: 0
**** REAL SIMULATION ****
info: Entering event queue @ 0.  Starting simulation...
system.mem_ctrls::functionalAccess() Cmd: ReadReq, Size: 64, addr: 1600, PC: NoPC, time: 11500
